CM Test comma-separated SY definitions
CE
SY a=1, b=a*2, c=b+1
GW 1 5 0 0 a 0 0 c 0.001
GE 0
EN
