CM --- NEC2 Input File created or edited by xnec2c 3.5 ---
CM A generally Omnidirectional Horzontally Polarized Antenna
CE --- End Comments ---
GW     1    15  -1.27000E+00 -1.27000E+00  0.00000E+00  1.27000E+00 -1.27000E+00  0.00000E+00  1.50000E-03
GW     1    15   1.27000E+00 -1.27000E+00  0.00000E+00  1.27000E+00  1.27000E+00  0.00000E+00  1.50000E-03
GW     1    15  -1.27000E+00 -1.27000E+00  0.00000E+00 -1.27000E+00  1.27000E+00  0.00000E+00  1.50000E-03
GW     1     7  -5.00000E-02  1.27000E+00  0.00000E+00 -1.27000E+00  1.27000E+00  0.00000E+00  1.50000E-03
GW     1     7   5.00000E-02  1.27000E+00  0.00000E+00  1.27000E+00  1.27000E+00  0.00000E+00  1.50000E-03
GM     1     4   0.00000E+00  0.00000E+00  0.00000E+00  0.00000E+00  0.00000E+00  0.00000E+00  1.00000E+00
GS     2     2   8.05000E-01  0.00000E+00  0.00000E+00  0.00000E+00  0.00000E+00  0.00000E+00  0.00000E+00
GS     3     3   6.90000E-01  0.00000E+00  0.00000E+00  0.00000E+00  0.00000E+00  0.00000E+00  0.00000E+00
GS     4     4   5.95000E-01  0.00000E+00  0.00000E+00  0.00000E+00  0.00000E+00  0.00000E+00  0.00000E+00
GS     5     5   5.30000E-01  0.00000E+00  0.00000E+00  0.00000E+00  0.00000E+00  0.00000E+00  0.00000E+00
GE     0     0   0.00000E+00  0.00000E+00  0.00000E+00  0.00000E+00  0.00000E+00  0.00000E+00  0.00000E+00
EX     0     5     8      0  1.00000E+00  0.00000E+00  0.00000E+00  0.00000E+00  0.00000E+00  0.00000E+00
FR     0   161     0      0  1.40000E+01  1.00000E-01  3.00000E+01  0.00000E+00  0.00000E+00  0.00000E+00
RP     0    19    37   1000  0.00000E+00  0.00000E+00  1.00000E+01  1.00000E+01  0.00000E+00  0.00000E+00
TL     1     8     2      8  3.00000E+02  0.00000E+00  0.00000E+00  0.00000E+00  0.00000E+00  0.00000E+00
TL     2     8     3      8  3.00000E+02  0.00000E+00  0.00000E+00  0.00000E+00  0.00000E+00  0.00000E+00
TL     3     8     4      8  3.00000E+02  0.00000E+00  0.00000E+00  0.00000E+00  0.00000E+00  0.00000E+00
TL     4     8     5      8  3.00000E+02  0.00000E+00  0.00000E+00  0.00000E+00  0.00000E+00  0.00000E+00
EN     0     0     0      0  0.00000E+00  0.00000E+00  0.00000E+00  0.00000E+00  0.00000E+00  0.00000E+00
