CM --- NEC2 Input File created or edited by xnec2c 3.5 ---
CM  12 ELEMENT LOG PERIODIC ANTENNA IN FREE SPACE.
CM  78 SEGMENTS. SIGMA=D/L RECEIVING AND TRANS. PATTERNS.
CM  DIPOLE LENGTH TO DIAMETER RATIO=150.
CM  TAU=0.93, SIGMA=0.70, BOOM IMPEDANCE=50. OHMS.
CE --- End Comments ---
GW     1     9  0.00000E+00 -1.00000E+00  0.00000E+00  0.00000E+00  1.00000E+00  0.00000E+00  7.00000E-03
GW     2     9 -7.53000E-01 -1.07500E+00  0.00000E+00 -7.53000E-01  1.07500E+00  0.00000E+00  7.00000E-03
GW     3     9 -1.56200E+00 -1.15600E+00  0.00000E+00 -1.56200E+00  1.15600E+00  0.00000E+00  8.00000E-03
GW     4    11 -2.43200E+00 -1.24300E+00  0.00000E+00 -2.43200E+00  1.24300E+00  0.00000E+00  8.00000E-03
GW     5    11 -3.36800E+00 -1.33700E+00  0.00000E+00 -3.36800E+00  1.33700E+00  0.00000E+00  9.00000E-03
GW     6    11 -4.37400E+00 -1.43700E+00  0.00000E+00 -4.37400E+00  1.43700E+00  0.00000E+00  1.00000E-02
GW     7    13 -5.45600E+00 -1.54600E+00  0.00000E+00 -5.45600E+00  1.54600E+00  0.00000E+00  1.00000E-02
GW     8    13 -6.62000E+00 -1.66200E+00  0.00000E+00 -6.62000E+00  1.66200E+00  0.00000E+00  1.10000E-02
GW     9    15 -7.87000E+00 -1.78700E+00  0.00000E+00 -7.87000E+00  1.78700E+00  0.00000E+00  1.20000E-02
GW    10    15 -9.21600E+00 -1.92100E+00  0.00000E+00 -9.21600E+00  1.92100E+00  0.00000E+00  1.30000E-02
GW    11    17 -1.06600E+01 -2.06600E+00  0.00000E+00 -1.06600E+01  2.06600E+00  0.00000E+00  1.40000E-02
GW    12    17 -1.22200E+01 -2.22200E+00  0.00000E+00 -1.22200E+01  2.22200E+00  0.00000E+00  1.50000E-02
GM     0     0  0.00000E+00  0.00000E+00  0.00000E+00  6.00000E+00  0.00000E+00  0.00000E+00  0.00000E+00
GE     0     0  0.00000E+00  0.00000E+00  0.00000E+00  0.00000E+00  0.00000E+00  0.00000E+00  0.00000E+00
FR     0    21     0      0  3.50000E+01  1.00000E+00  0.00000E+00  0.00000E+00  0.00000E+00  0.00000E+00
LD     5     0     0      0  3.70000E+07  0.00000E+00  0.00000E+00  0.00000E+00  0.00000E+00  0.00000E+00
TL     1     5     2      5 -5.00000E+01  0.00000E+00  0.00000E+00  0.00000E+00  0.00000E+00  0.00000E+00
TL     2     5     3      5 -5.00000E+01  0.00000E+00  0.00000E+00  0.00000E+00  0.00000E+00  0.00000E+00
TL     3     5     4      6 -5.00000E+01  0.00000E+00  0.00000E+00  0.00000E+00  0.00000E+00  0.00000E+00
TL     4     6     5      6 -5.00000E+01  0.00000E+00  0.00000E+00  0.00000E+00  0.00000E+00  0.00000E+00
TL     5     6     6      6 -5.00000E+01  0.00000E+00  0.00000E+00  0.00000E+00  0.00000E+00  0.00000E+00
TL     6     6     7      7 -5.00000E+01  0.00000E+00  0.00000E+00  0.00000E+00  0.00000E+00  0.00000E+00
TL     7     7     8      7 -5.00000E+01  0.00000E+00  0.00000E+00  0.00000E+00  0.00000E+00  0.00000E+00
TL     8     7     9      8 -5.00000E+01  0.00000E+00  0.00000E+00  0.00000E+00  0.00000E+00  0.00000E+00
TL     9     8    10      8 -5.00000E+01  0.00000E+00  0.00000E+00  0.00000E+00  0.00000E+00  0.00000E+00
TL    10     8    11      9 -5.00000E+01  0.00000E+00  0.00000E+00  0.00000E+00  0.00000E+00  0.00000E+00
TL    11     9    12      9 -5.00000E+01  0.00000E+00  0.00000E+00  0.00000E+00  2.00000E-02  0.00000E+00
EX     0     1     5      0  1.00000E+00  0.00000E+00  0.00000E+00  0.00000E+00  0.00000E+00  0.00000E+00
RP     0    19    37   1000  0.00000E+00  0.00000E+00  1.00000E+01  1.00000E+01  0.00000E+00  0.00000E+00
EN     0     0     0      0  0.00000E+00  0.00000E+00  0.00000E+00  0.00000E+00  0.00000E+00  0.00000E+00
