CM --- NEC2 Input File created or edited by xnec2c 3.5 ---
CM Moxon-type 2-element beam for 10-20m
CM Optimized for maximum front-to-back ratio
CM Input impedance matching requires a 4:1 balun
CE --- End Comments ---
GW     1    13  -2.69000E+00 -2.54000E+00  0.00000E+00  2.69000E+00 -2.54000E+00  0.00000E+00  1.50000E-03
GW     1     6   2.69000E+00 -2.54000E+00  0.00000E+00  2.69000E+00 -5.00000E-02  0.00000E+00  1.50000E-03
GW     1     6  -2.69000E+00 -2.54000E+00  0.00000E+00 -2.69000E+00 -5.00000E-02  0.00000E+00  1.50000E-03
GW     2    13  -2.69000E+00  2.69000E+00  0.00000E+00  2.69000E+00  2.69000E+00  0.00000E+00  1.50000E-03
GW     2     6   2.69000E+00  2.69000E+00  0.00000E+00  2.69000E+00  5.00000E-02  0.00000E+00  1.50000E-03
GW     2     6  -2.69000E+00  2.69000E+00  0.00000E+00 -2.69000E+00  5.00000E-02  0.00000E+00  1.50000E-03
GM     2     4   0.00000E+00  0.00000E+00  0.00000E+00  0.00000E+00  0.00000E+00  0.00000E+00  1.00000E+00
GS     3     4   7.75000E-01  0.00000E+00  0.00000E+00  0.00000E+00  0.00000E+00  0.00000E+00  0.00000E+00
GS     5     6   6.63000E-01  0.00000E+00  0.00000E+00  0.00000E+00  0.00000E+00  0.00000E+00  0.00000E+00
GS     7     8   5.63000E-01  0.00000E+00  0.00000E+00  0.00000E+00  0.00000E+00  0.00000E+00  0.00000E+00
GS     9    10   4.97000E-01  0.00000E+00  0.00000E+00  0.00000E+00  0.00000E+00  0.00000E+00  0.00000E+00
GE     0     0   0.00000E+00  0.00000E+00  0.00000E+00  0.00000E+00  0.00000E+00  0.00000E+00  0.00000E+00
EX     0     1     7      0  1.00000E+00  0.00000E+00  0.00000E+00  0.00000E+00  0.00000E+00  0.00000E+00
TL     1     7     3      7  3.00000E+02  0.00000E+00  0.00000E+00  0.00000E+00  0.00000E+00  0.00000E+00
TL     3     7     5      7  3.00000E+02  0.00000E+00  0.00000E+00  0.00000E+00  0.00000E+00  0.00000E+00
TL     5     7     7      7  3.00000E+02  0.00000E+00  0.00000E+00  0.00000E+00  0.00000E+00  0.00000E+00
TL     7     7     9      7  3.00000E+02  0.00000E+00  0.00000E+00  0.00000E+00  0.00000E+00  0.00000E+00
FR     0   161     0      0  1.40000E+01  1.00000E-01  3.00000E+01  0.00000E+00  0.00000E+00  0.00000E+00
RP     0    19    37   1000  0.00000E+00  0.00000E+00  1.00000E+01  1.00000E+01  0.00000E+00  0.00000E+00
EN     0     0     0      0  0.00000E+00  0.00000E+00  0.00000E+00  0.00000E+00  0.00000E+00  0.00000E+00
