CM --- NEC2 Input File created or edited by xnec2c 3.5 ---
CM Skeleton spherical broadband vertical for 10-30 MHz
CM Average ground with radial wire screen
CE --- End Comments ---
GA     1    38  2.50000E+00 -9.00000E+01  9.00000E+01  7.50000E-03  0.00000E+00  0.00000E+00  0.00000E+00
GM     0     0  0.00000E+00  0.00000E+00  0.00000E+00  0.00000E+00  0.00000E+00  2.70000E+00  1.00000E+00
GW     2    12  0.00000E+00  0.00000E+00  2.70000E+00  2.50000E+00  0.00000E+00  2.70000E+00  1.25000E-02
GR     0     4  0.00000E+00  0.00000E+00  0.00000E+00  0.00000E+00  0.00000E+00  0.00000E+00  0.00000E+00
GW     3    24  0.00000E+00  0.00000E+00  2.00000E-01  0.00000E+00  0.00000E+00  5.20000E+00  1.25000E-02
GW     4     1  0.00000E+00  0.00000E+00  0.00000E+00  0.00000E+00  0.00000E+00  2.00000E-01  1.25000E-02
GE     1     0  0.00000E+00  0.00000E+00  0.00000E+00  0.00000E+00  0.00000E+00  0.00000E+00  0.00000E+00
EX     0     4     1      0  1.00000E+00  0.00000E+00  0.00000E+00  0.00000E+00  0.00000E+00  0.00000E+00
FR     0    41     0      0  1.00000E+01  5.00000E-01  3.00000E+01  0.00000E+00  0.00000E+00  0.00000E+00
GN     0    32     0      0  1.20000E+01  5.00000E-03  7.00000E+00  3.00000E-03  0.00000E+00  0.00000E+00
NE     0     1     1      1  0.00000E+00  0.00000E+00  0.00000E+00  0.00000E+00  0.00000E+00  0.00000E+00
NH     0    20     1     15 -4.75000E+00  0.00000E+00  2.50000E-01  5.00000E-01  0.00000E+00  5.00000E-01
RP     4    19    37   1000  0.00000E+00  0.00000E+00  5.00000E+00  1.00000E+01  0.00000E+00  0.00000E+00
EN     0     0     0      0  0.00000E+00  0.00000E+00  0.00000E+00  0.00000E+00  0.00000E+00  0.00000E+00
