CM --- NEC2 Input File created or edited by xnec2c 3.5 ---
CM Multiband Vertical covering all bands from 10m-30m
CM No traps are used and only one element (30m) is
CM fed power. A vertical element for each band is needed
CM close to the central driven element. A good ground
CM plane system will be needed for good performance.
CE --- End Comments ---
GW     1    35   0.00000E+00  0.00000E+00  0.00000E+00  0.00000E+00  0.00000E+00  7.25000E+00  1.25000E-02
GW     2    25   2.50000E-01  0.00000E+00  0.00000E+00  2.50000E-01  0.00000E+00  5.05000E+00  6.00000E-03
GW     7     8  1.50000E-01  1.50000E-01  0.00000E+00  1.50000E-01  1.50000E-01  1.45000E+00  6.00000E-03
GW     3    20   7.70000E-02  2.38000E-01  0.00000E+00  7.70000E-02  2.38000E-01  4.02000E+00  6.00000E-03
GW     4    17  -2.02000E-01  1.47000E-01  0.00000E+00 -2.02000E-01  1.47000E-01  3.43000E+00  6.00000E-03
GW     5    14  -2.02000E-01 -1.47000E-01  0.00000E+00 -2.02000E-01 -1.47000E-01  2.92000E+00  6.00000E-03
GW     6    12   7.70000E-02 -2.48000E-01  0.00000E+00  7.70000E-02 -2.48000E-01  2.58000E+00  6.00000E-03
GE     1     0   0.00000E+00  0.00000E+00  0.00000E+00  0.00000E+00  0.00000E+00  0.00000E+00  0.00000E+00
EX     0     1     1      0  1.00000E+00  0.00000E+00  0.00000E+00  0.00000E+00  0.00000E+00  0.00000E+00
FR     0   121     0      0  2.80000E+01  2.00000E-01  5.20000E+01  0.00000E+00  0.00000E+00  0.00000E+00
RP     0    19    37   1000  0.00000E+00  0.00000E+00  5.00000E+00  1.00000E+01  0.00000E+00  0.00000E+00
GN     1     0     0      0  0.00000E+00  0.00000E+00  0.00000E+00  0.00000E+00  0.00000E+00  0.00000E+00
EN     0     0     0      0  0.00000E+00  0.00000E+00  0.00000E+00  0.00000E+00  0.00000E+00  0.00000E+00
