CM --- NEC2 Input File created or edited by xnec2c 3.5 ---
CM Multiband Vertical covering all bands from 10m-30m
CM No traps are used and only one element (30m) is fed
CM power. A vertical element for each band is needed
CM close to the central driven element. A good ground
CM plane system will be needed for good performance.
CE --- End Comments ---
GW     1    35   0.00000E+00  0.00000E+00  0.00000E+00  0.00000E+00  0.00000E+00  7.20000E+00  1.25000E-02
GW     2    25   4.00000E-01  0.00000E+00  0.00000E+00  4.00000E-01  0.00000E+00  5.00000E+00  6.00000E-03
GW     3    20   1.00000E-01  2.30000E-01  0.00000E+00  1.00000E-01  2.30000E-01  4.00000E+00  6.00000E-03
GW     4    17  -2.50000E-01  1.90000E-01  0.00000E+00 -2.50000E-01  1.90000E-01  3.40000E+00  6.00000E-03
GW     5    14  -2.60000E-01 -1.90000E-01  0.00000E+00 -2.60000E-01 -1.90000E-01  2.89000E+00  6.00000E-03
GW     6    12   9.00000E-02 -2.70000E-01  0.00000E+00  9.00000E-02 -2.70000E-01  2.55000E+00  6.00000E-03
GE     1     0   0.00000E+00  0.00000E+00  0.00000E+00  0.00000E+00  0.00000E+00  0.00000E+00  0.00000E+00
EX     0     1     1      0  1.00000E+00  0.00000E+00  0.00000E+00  0.00000E+00  0.00000E+00  0.00000E+00
FR     0    93     0      0  7.00000E+00  2.50000E-01  3.00000E+01  0.00000E+00  0.00000E+00  0.00000E+00
RP     0    19    37   1000  0.00000E+00  0.00000E+00  5.00000E+00  1.00000E+01  0.00000E+00  0.00000E+00
GN     1     0     0      0  0.00000E+00  0.00000E+00  0.00000E+00  0.00000E+00  0.00000E+00  0.00000E+00
EN     0     0     0      0  0.00000E+00  0.00000E+00  0.00000E+00  0.00000E+00  0.00000E+00  0.00000E+00
