CM --- NEC2 Input File created by xnec2c 1.0-beta ---
CE --- End Comments ---
GW     1    16  2.00000E+00  0.00000E+00  2.70000E+00  0.00000E+00  0.00000E+00  2.00000E-01  1.50000E-02
GW     2    16  2.00000E+00  0.00000E+00  2.70000E+00  0.00000E+00  0.00000E+00  5.20000E+00  1.50000E-02
GW     3    10  2.00000E+00  0.00000E+00  2.70000E+00  0.00000E+00  0.00000E+00  2.70000E+00  1.50000E-02
GW     4    14  2.00000E+00  0.00000E+00  2.70000E+00  0.00000E+00  2.00000E+00  2.70000E+00  1.50000E-02
GR     0     4  0.00000E+00  0.00000E+00  0.00000E+00  0.00000E+00  0.00000E+00  0.00000E+00  0.00000E+00
GW     5    12  0.00000E+00  0.00000E+00  2.70000E+00  0.00000E+00  0.00000E+00  2.00000E-01  1.50000E-03
GW     6    12  0.00000E+00  0.00000E+00  2.70000E+00  0.00000E+00  0.00000E+00  5.20000E+00  1.50000E-03
GW     7     1  0.00000E+00  0.00000E+00  2.00000E-01  0.00000E+00  0.00000E+00  0.00000E+00  1.50000E-03
GE     1     0  0.00000E+00  0.00000E+00  0.00000E+00  0.00000E+00  0.00000E+00  0.00000E+00  0.00000E+00
EX     0     7     1      0  1.00000E+00  0.00000E+00  0.00000E+00  0.00000E+00  0.00000E+00  0.00000E+00
FR     0    41     0      0  1.00000E+01  5.00000E-01  3.00000E+01  0.00000E+00  0.00000E+00  0.00000E+00
NH     0     0     0      0  0.00000E+00  0.00000E+00  0.00000E+00  0.00000E+00  0.00000E+00  0.00000E+00
NE     0    10     1     10 -4.50000E+00  0.00000E+00  5.00000E-01  1.00000E+00  0.00000E+00  1.00000E+00
RP     0    19    73      0  0.00000E+00  0.00000E+00  5.00000E+00  5.00000E+00  0.00000E+00  0.00000E+00
GN     0    32     0     0  1.20000E+01  5.00000E-03  6.00000E+00  5.00000E-03  0.00000E+00  0.00000E+00
EN     0     0     0      0  0.00000E+00  0.00000E+00  0.00000E+00  0.00000E+00  0.00000E+00  0.00000E+00
