CM --- NEC2 Input File created or edited by xnec2c 3.5 ---
CM A Skeleton Box type Broadband Vertical for 10-30m
CE --- End Comments ---
GW     2    24   1.50000E+00  0.00000E+00  2.00000E-01  1.50000E+00  0.00000E+00  4.80000E+00  1.50000E-03
GW     3     8   0.00000E+00  0.00000E+00  4.80000E+00  1.50000E+00  0.00000E+00  4.80000E+00  1.50000E-03
GW     4     8   0.00000E+00  0.00000E+00  2.00000E-01  1.50000E+00  0.00000E+00  2.00000E-01  1.50000E-03
GR     0     6   0.00000E+00  0.00000E+00  0.00000E+00  0.00000E+00  0.00000E+00  0.00000E+00  0.00000E+00
GW     1     1   0.00000E+00  0.00000E+00  0.00000E+00  0.00000E+00  0.00000E+00  2.00000E-01  5.00000E-03
GE     1     0   0.00000E+00  0.00000E+00  0.00000E+00  0.00000E+00  0.00000E+00  0.00000E+00  0.00000E+00
EX     0     1     1      0  1.00000E+00  0.00000E+00  0.00000E+00  0.00000E+00  0.00000E+00  0.00000E+00
GN     0    16     0      0  1.20000E+01  1.00000E-02  5.00000E+00  5.00000E-03  0.00000E+00  0.00000E+00
FR     0    41     0      0  1.00000E+01  5.00000E-01  3.00000E+01  0.00000E+00  0.00000E+00  0.00000E+00
RP     0    19    37   1000  0.00000E+00  0.00000E+00  5.00000E+00  1.00000E+01  0.00000E+00  0.00000E+00
EN     0     0     0      0  0.00000E+00  0.00000E+00  0.00000E+00  0.00000E+00  0.00000E+00  0.00000E+00
