CM --- NEC2 Input File created or edited by xnec2c 3.2 ---
CM Skeleton Cage broad-band vertical 10-30 MHz
CM Average ground with radial wire screen and cliff
CE --- End Comments ---
GW     1     5  1.20000E+00  0.00000E+00  0.00000E+00  0.00000E+00  0.00000E+00  0.00000E+00  7.50000E-03
GM     0     2  0.00000E+00  0.00000E+00  0.00000E+00  0.00000E+00  0.00000E+00  2.40000E+00  0.00000E+00
GW     2    20  1.20000E+00  0.00000E+00  0.00000E+00  1.20000E+00  0.00000E+00  4.80000E+00  3.00000E-03
GR     0     4  0.00000E+00  0.00000E+00  0.00000E+00  0.00000E+00  0.00000E+00  0.00000E+00  0.00000E+00
GW     3    20  0.00000E+00  0.00000E+00  0.00000E+00  0.00000E+00  0.00000E+00  4.80000E+00  1.25000E-02
GM     0     0  0.00000E+00  0.00000E+00  0.00000E+00  0.00000E+00  0.00000E+00  5.00000E-01  0.00000E+00
GW     4     2  0.00000E+00  0.00000E+00  0.00000E+00  0.00000E+00  0.00000E+00  5.00000E-01  1.25000E-02
GE     1     0  0.00000E+00  0.00000E+00  0.00000E+00  0.00000E+00  0.00000E+00  0.00000E+00  0.00000E+00
EX     0     4     1      0  1.00000E+00  0.00000E+00  0.00000E+00  0.00000E+00  0.00000E+00  0.00000E+00
FR     0    21     0      0  1.00000E+01  1.00000E+00  0.00000E+00  0.00000E+00  0.00000E+00  0.00000E+00
GN     0    32     0      0  1.30000E+01  5.00000E-03  7.00000E+00  3.00000E-03  0.00000E+00  0.00000E+00
GD     0     0     0      0  1.20000E+01  5.00000E-03  1.00000E+01  4.00000E+00  0.00000E+00  0.00000E+00
NE     0     0     0      0  0.00000E+00  0.00000E+00  0.00000E+00  0.00000E+00  0.00000E+00  0.00000E+00
NH     0     1    20     15  0.00000E+00 -4.75000E+00  5.00000E-01  0.00000E+00  5.00000E-01  5.00000E-01
RP     6    19    37   1000  0.00000E+00  0.00000E+00  5.00000E+00  1.00000E+01  0.00000E+00  0.00000E+00
EN     0     0     0      0  0.00000E+00  0.00000E+00  0.00000E+00  0.00000E+00  0.00000E+00  0.00000E+00
