CM --- NEC2 Input File created by xnec2c-1.6 ---
CM Windom antenna for 10 - 80m
CE --- End Comments ---
GW     1    16  0.00000E+00  0.00000E+00  0.00000E+00  0.00000E+00  0.00000E+00  8.00000E+00  2.00000E-03
GW     2    27  0.00000E+00  0.00000E+00  8.00000E+00  1.36000E+01  0.00000E+00  8.00000E+00  2.00000E-03
GW     3    13  0.00000E+00  0.00000E+00  8.00000E+00 -6.80000E+00  0.00000E+00  8.00000E+00  2.00000E-03
GE     1     0  0.00000E+00  0.00000E+00  0.00000E+00  0.00000E+00  0.00000E+00  0.00000E+00  0.00000E+00
EX     0     1     1      0  1.00000E+00  0.00000E+00  0.00000E+00  0.00000E+00  0.00000E+00  0.00000E+00
FR     0    55     0      0  3.00000E+00  5.00000E-01  3.00000E+01  0.00000E+00  0.00000E+00  0.00000E+00
RP     0    19    37      0  0.00000E+00  0.00000E+00  5.00000E+00  1.00000E+01  0.00000E+00  0.00000E+00
GN     0     4     0      0  1.20000E+01  1.00000E-02  8.00000E+00  5.00000E-03  0.00000E+00  0.00000E+00
EN     0     0     0      0  0.00000E+00  0.00000E+00  0.00000E+00  0.00000E+00  0.00000E+00  0.00000E+00
