CM --- NEC2 Input File created or edited by xnec2c 3.5 ---
CM G5RV antenna for 10 - 80m
CE --- End Comments ---
GW     1   101   1.42500E+01  0.00000E+00  1.35000E+01 -1.42500E+01  0.00000E+00  1.35000E+01  1.50000E-03
GW     2     1   1.00000E-01  0.00000E+00  2.00000E-01 -1.00000E-01  0.00000E+00  2.00000E-01  1.50000E-02
GE     1     0   0.00000E+00  0.00000E+00  0.00000E+00  0.00000E+00  0.00000E+00  0.00000E+00  0.00000E+00
EX     0     2     1      0  1.00000E+00  0.00000E+00  0.00000E+00  0.00000E+00  0.00000E+00  0.00000E+00
FR     0   136     0      0  3.00000E+00  2.00000E-01  3.00000E+01  0.00000E+00  0.00000E+00  0.00000E+00
RP     0    37    74   1000  0.00000E+00  0.00000E+00  2.50000E+00  5.00000E+00  0.00000E+00  0.00000E+00
TL     1    51     2      1  4.50000E+02  0.00000E+00  0.00000E+00  0.00000E+00  0.00000E+00  0.00000E+00
GN     2     0     0      0  1.20000E+01  1.00000E-02  0.00000E+00  0.00000E+00  0.00000E+00  0.00000E+00
EN     0     0     0      0  0.00000E+00  0.00000E+00  0.00000E+00  0.00000E+00  0.00000E+00  0.00000E+00
