CM --- NEC2 Input File created or edited by xnec2c 3.2 ---
CM Inverted L antenna for 10 - 80m
CE --- End Comments ---
GW     1    21  0.00000E+00  0.00000E+00  0.00000E+00  0.00000E+00  0.00000E+00  9.00000E+00  2.00000E-03
GW     2    62  0.00000E+00  0.00000E+00  9.00000E+00  2.50000E+01  0.00000E+00  9.00000E+00  2.00000E-03
GE     1     0  0.00000E+00  0.00000E+00  0.00000E+00  0.00000E+00  0.00000E+00  0.00000E+00  0.00000E+00
EX     0     1     1      0  1.00000E+00  0.00000E+00  0.00000E+00  0.00000E+00  0.00000E+00  0.00000E+00
FR     0    55     0      0  3.00000E+00  5.00000E-01  3.00000E+01  0.00000E+00  0.00000E+00  0.00000E+00
RP     0    19    37   1000  0.00000E+00  0.00000E+00  5.00000E+00  1.00000E+01  0.00000E+00  0.00000E+00
GN     0     4     0      0  1.20000E+01  5.00000E-03  8.00000E+00  5.00000E-03  0.00000E+00  0.00000E+00
EN     0     0     0      0  0.00000E+00  0.00000E+00  0.00000E+00  0.00000E+00  0.00000E+00  0.00000E+00
