CM --- NEC2 Input File created or edited by xnec2c 3.5 ---
CM Quadrifilar 1/4 turn Helix Antenna for 137MHz
CE --- End Comments ---
GW     1    40   0.00000E+00  1.22000E-01  0.00000E+00  1.22000E-01  0.00000E+00  9.34000E-01  6.00000E-03
GW     2     5   0.00000E+00  0.00000E+00  0.00000E+00  0.00000E+00  1.22000E-01  0.00000E+00  6.00000E-03
GW     3     5  -6.00000E-03 -6.00000E-03  9.34000E-01  0.00000E+00 -1.22000E-01  9.34000E-01  6.00000E-03
GM     0     0   0.00000E+00  0.00000E+00  9.00000E+01  0.00000E+00  0.00000E+00  0.00000E+00  1.00000E+00
GW     4    38   0.00000E+00  1.22000E-01  0.00000E+00  1.22000E-01  0.00000E+00  8.75000E-01  6.00000E-03
GW     5     5   0.00000E+00  0.00000E+00  0.00000E+00  0.00000E+00  1.22000E-01  0.00000E+00  6.00000E-03
GM     0     0   0.00000E+00  0.00000E+00  0.00000E+00  0.00000E+00  0.00000E+00  5.90000E-02  4.00000E+00
GW     6     5  -6.00000E-03  6.00000E-03  9.34000E-01  0.00000E+00  1.22000E-01  9.34000E-01  6.00000E-03
GR     0     2   0.00000E+00  0.00000E+00  0.00000E+00  0.00000E+00  0.00000E+00  0.00000E+00  0.00000E+00
GW     7     1  -6.00000E-03  6.00000E-03  9.34000E-01  6.00000E-03 -6.00000E-03  9.34000E-01  6.00000E-03
GM     0     0   1.80000E+02  0.00000E+00  0.00000E+00  0.00000E+00  0.00000E+00  4.70000E-01  0.00000E+00
GE     0     0   0.00000E+00  0.00000E+00  0.00000E+00  0.00000E+00  0.00000E+00  0.00000E+00  0.00000E+00
EX     0     7     1      0  1.00000E+00  0.00000E+00  0.00000E+00  0.00000E+00  0.00000E+00  0.00000E+00
FR     0    51     0      0  1.35000E+02  1.00000E-01  1.40000E+02  0.00000E+00  0.00000E+00  0.00000E+00
RP     0    19    37   1000  0.00000E+00  0.00000E+00  1.00000E+01  1.00000E+01  0.00000E+00  0.00000E+00
EN     0     0     0      0  0.00000E+00  0.00000E+00  0.00000E+00  0.00000E+00  0.00000E+00  0.00000E+00
