CM --- NEC2 Input File created or edited by xnec2c 3.5 ---
CM Quadrifilar 1/4 turn Helix Antenna for 137MHz
CE --- End Comments ---
GH     1    45   3.73600E+00 -9.34000E-01  1.22000E-01  1.22000E-01  1.22000E-01  1.22000E-01  2.50000E-03
GW     2     6   0.00000E+00  0.00000E+00  0.00000E+00  0.00000E+00  1.22000E-01  0.00000E+00  2.50000E-03
GW     3     5  -6.10000E-03 -6.10000E-03  9.34000E-01  0.00000E+00 -1.22000E-01  9.34000E-01  2.50000E-03
GM     0     0   0.00000E+00  0.00000E+00  9.00000E+01  0.00000E+00  0.00000E+00  0.00000E+00  1.00000E+00
GH     4    43   3.50000E+00 -8.75000E-01  1.22000E-01  1.22000E-01  1.22000E-01  1.22000E-01  2.50000E-03
GW     5     6   0.00000E+00  0.00000E+00  0.00000E+00  0.00000E+00  1.22000E-01  0.00000E+00  2.50000E-03
GM     0     0   0.00000E+00  0.00000E+00  0.00000E+00  0.00000E+00  0.00000E+00  5.90000E-02  4.00000E+00
GW     6     5  -6.10000E-03  6.10000E-03  9.34000E-01  0.00000E+00  1.22000E-01  9.34000E-01  2.50000E-03
GR     0     2   0.00000E+00  0.00000E+00  0.00000E+00  0.00000E+00  0.00000E+00  0.00000E+00  0.00000E+00
GW     7     1  -6.10000E-03  6.10000E-03  9.34000E-01  6.10000E-03 -6.10000E-03  9.34000E-01  5.00000E-03
GM     0     0   1.80000E+02  0.00000E+00  0.00000E+00  0.00000E+00  0.00000E+00  4.70000E-01  0.00000E+00
GE     0     0   0.00000E+00  0.00000E+00  0.00000E+00  0.00000E+00  0.00000E+00  0.00000E+00  0.00000E+00
EX     0     7     1      0  1.00000E+00  0.00000E+00  0.00000E+00  0.00000E+00  0.00000E+00  0.00000E+00
FR     0    51     0      0  1.30000E+02  2.00000E-01  1.40000E+02  0.00000E+00  0.00000E+00  0.00000E+00
RP     0    19    37   1000  0.00000E+00  0.00000E+00  1.00000E+01  1.00000E+01  0.00000E+00  0.00000E+00
EN     0     0     0      0  0.00000E+00  0.00000E+00  0.00000E+00  0.00000E+00  0.00000E+00  0.00000E+00
