CM R.H. cicular polarized turnstile for 137 MHz
CE --- End Comments ---
GW     1    26  0.00000E+00  0.00000E+00  0.00000E+00  5.20000E-01  0.00000E+00  0.00000E+00  6.00000E-03
GR     0     4   0.00000E+00  0.00000E+00  0.00000E+00  0.00000E+00  0.00000E+00  0.00000E+00  0.00000E+00
GW     2    30   0.00000E+00 -1.00000E-02  5.00000E-01  5.20000E-01 -1.00000E-02  2.10000E-01  6.00000E-03
GW     3    30   0.00000E+00  1.00000E-02  5.00000E-01 -5.20000E-01  1.00000E-02  2.10000E-01  6.00000E-03
GW     4    24   0.00000E+00 -1.00000E-02  5.00000E-01  0.00000E+00 -4.30000E-01  2.70000E-01  6.00000E-03
GW     5    24   0.00000E+00  1.00000E-02  5.00000E-01  0.00000E+00  4.30000E-01  2.70000E-01  6.00000E-03
GW     6     1   0.00000E+00  1.00000E-02  5.00000E-01  0.00000E+00 -1.00000E-02  5.00000E-01  1.25000E-02
GM     0     0   0.00000E+00  0.00000E+00  0.00000E+00  0.00000E+00  0.00000E+00  6.00000E-01  2.00000E+00
GE     0     0   0.00000E+00  0.00000E+00  0.00000E+00  0.00000E+00  0.00000E+00  0.00000E+00  0.00000E+00
EX     0     6     1      0  1.00000E+00  0.00000E+00  0.00000E+00  0.00000E+00  0.00000E+00  0.00000E+00
FR     0    41     0      0  1.30000E+02  5.00000E-01  1.50000E+02  0.00000E+00  0.00000E+00  0.00000E+00
RP     0    19    37   1000  0.00000E+00  0.00000E+00  1.00000E+01  1.00000E+01  0.00000E+00  0.00000E+00
EN     0     0     0      0  0.00000E+00  0.00000E+00  0.00000E+00  0.00000E+00  0.00000E+00  0.00000E+00
