CM --- NEC2 Input File created or edited by xnec2c 3.5 ---
CM Turnstile antenna RH elliptical polarization for 137 MHz
CE --- End Comments ---
GW     1    24   0.00000E+00  5.17000E-01  0.00000E+00  0.00000E+00 -5.17000E-01  0.00000E+00  6.00000E-03
GW     2    24  -5.17000E-01  0.00000E+00  0.00000E+00  5.17000E-01  0.00000E+00  0.00000E+00  6.00000E-03
GW     3    12  -5.15000E-01  0.00000E+00  4.00000E-01  0.00000E+00  1.00000E-02  4.00000E-01  6.00000E-03
GW     4    12   0.00000E+00 -1.00000E-02  4.00000E-01  5.15000E-01 -1.00000E-02  4.00000E-01  6.00000E-03
GW     5    11   0.00000E+00 -4.65000E-01  4.00000E-01  0.00000E+00 -1.00000E-02  4.00000E-01  6.00000E-03
GW     6    11   0.00000E+00  1.00000E-02  4.00000E-01  0.00000E+00  4.65000E-01  4.00000E-01  6.00000E-03
GW     7     1   0.00000E+00  1.00000E-02  4.00000E-01  0.00000E+00 -1.00000E-02  4.00000E-01  6.00000E-03
GE     0     0   0.00000E+00  0.00000E+00  0.00000E+00  0.00000E+00  0.00000E+00  0.00000E+00  0.00000E+00
EX     0     7     1      0  1.00000E+00  0.00000E+00  0.00000E+00  0.00000E+00  0.00000E+00  0.00000E+00
FR     0    51     0     0  1.35000E+02  1.00000E-01  1.40000E+02  0.00000E+00  0.00000E+00  0.00000E+00
NH     0     0     0      0  0.00000E+00  0.00000E+00  0.00000E+00  0.00000E+00  0.00000E+00  0.00000E+00
NE     0    16     1     16 -1.50000E+00  0.00000E+00 -9.00000E-01  2.00000E-01  0.00000E+00  2.00000E-01
RP     0    19    37   1000  0.00000E+00  0.00000E+00  1.00000E+01  1.00000E+01  0.00000E+00  0.00000E+00
EN     0     0     0      0  0.00000E+00  0.00000E+00  0.00000E+00  0.00000E+00  0.00000E+00  0.00000E+00
