CM --- NEC2 Input File created or edited by xnec2c 3.5 ---
CM Quadrifilar 1/2 turn Helix Antenna for 137MHz
CE --- End Comments ---
GH     1    15   1.58000E+00 -7.90000E-01  1.50000E-01  1.50000E-01  1.50000E-01  1.50000E-01  2.50000E-03
GW     2     7   0.00000E+00  0.00000E+00  0.00000E+00  1.50000E-01  0.00000E+00  0.00000E+00  2.50000E-03
GW     3     7  -7.50000E-03  7.50000E-03  7.90000E-01 -1.50000E-01  0.00000E+00  7.90000E-01  2.50000E-03
GH     4    15   1.40000E+00 -7.00000E-01  1.50000E-01  1.50000E-01  1.50000E-01  1.50000E-01  2.50000E-03
GW     5     7   0.00000E+00  0.00000E+00  0.00000E+00  1.50000E-01  0.00000E+00  0.00000E+00  2.50000E-03
GM     0     0   0.00000E+00  0.00000E+00  0.00000E+00  0.00000E+00  0.00000E+00  9.00000E-02  4.00000E+00
GW     6     7  -7.50000E-03 -7.50000E-03  7.90000E-01 -1.50000E-01  0.00000E+00  7.90000E-01  2.50000E-03
GM     0     0   0.00000E+00  0.00000E+00 -9.00000E+01  0.00000E+00  0.00000E+00  0.00000E+00  4.00000E+00
GR     0     2 0.0 0.0 0.0 0.0 0.0 0.0 0.0
GW     7     1   7.50000E-03 -7.50000E-03  7.90000E-01 -7.50000E-03  7.50000E-03  7.90000E-01  5.00000E-03
GM     0     0   1.80000E+02  0.00000E+00  0.00000E+00  0.00000E+00  0.00000E+00  3.50000E-01  0.00000E+00
GE     0     0   0.00000E+00  0.00000E+00  0.00000E+00  0.00000E+00  0.00000E+00  0.00000E+00  0.00000E+00
EX     0     7     1      0  1.00000E+00  0.00000E+00  0.00000E+00  0.00000E+00  0.00000E+00  0.00000E+00
FR     0    51     0      0  1.30000E+02  2.00000E-01  1.40000E+02  0.00000E+00  0.00000E+00  0.00000E+00
RP     0    19    37   1000  0.00000E+00  0.00000E+00  1.00000E+01  1.00000E+01  0.00000E+00  0.00000E+00
EN     0     0     0      0  0.00000E+00  0.00000E+00  0.00000E+00  0.00000E+00  0.00000E+00  0.00000E+00
