CM --- NEC2 Input File created or edited by xnec2c 3.5 ---
CM R.H. cicular polarized turnstile for 137 MHz
CE --- End Comments ---
GW     1    24   0.00000E+00 -5.00000E-01  0.00000E+00  0.00000E+00  5.00000E-01  0.00000E+00  6.00000E-03
GW     2    24  -5.00000E-01  0.00000E+00  0.00000E+00  5.00000E-01  0.00000E+00  0.00000E+00  6.00000E-03
GW     3    12   0.00000E+00  1.00000E-02  5.00000E-01  3.44000E-01  1.00000E-02  1.56000E-01  6.00000E-03
GW     4    12   0.00000E+00 -1.00000E-02  5.00000E-01 -3.44000E-01 -1.00000E-02  1.56000E-01  6.00000E-03
GW     5    13   0.00000E+00 -1.00000E-02  5.00000E-01  0.00000E+00 -3.75000E-01  1.35000E-01  6.00000E-03
GW     6    13   0.00000E+00  1.00000E-02  5.00000E-01  0.00000E+00  3.75000E-01  1.35000E-01  6.00000E-03
GW     7     1   0.00000E+00  1.00000E-02  5.00000E-01  0.00000E+00 -1.00000E-02  5.00000E-01  1.25000E-02
GM     0     0   0.00000E+00  0.00000E+00  0.00000E+00  0.00000E+00  0.00000E+00  4.00000E-01  3.00000E+00
GE     0     0   0.00000E+00  0.00000E+00  0.00000E+00  0.00000E+00  0.00000E+00  0.00000E+00  0.00000E+00
EX     0     7     1      0  1.00000E+00  0.00000E+00  0.00000E+00  0.00000E+00  0.00000E+00  0.00000E+00
FR     0    31     0      0  1.36000E+02  1.00000E-01  1.39000E+02  0.00000E+00  0.00000E+00  0.00000E+00
NH     0     0     0      0  0.00000E+00  0.00000E+00  0.00000E+00  0.00000E+00  0.00000E+00  0.00000E+00
NE     0    16     1     16 -7.50000E-01  0.00000E+00 -4.50000E-01  1.00000E-01  0.00000E+00  1.00000E-01
RP     0    19    37   1000  0.00000E+00  0.00000E+00  1.00000E+01  1.00000E+01  0.00000E+00  0.00000E+00
EN     0     0     0      0  0.00000E+00  0.00000E+00  0.00000E+00  0.00000E+00  0.00000E+00  0.00000E+00
