CM --- NEC2 Input File created or edited by xnec2c 3.5 ---
CM A linear horizontally polarized parasitic broadside antenna for 137 MHz
CE --- End Comments ---
GW     1    51  -4.80000E-01  0.00000E+00  0.00000E+00  4.80000E-01  0.00000E+00  0.00000E+00  5.00000E-03
GW     2    60  -5.80000E-01  0.00000E+00 -4.00000E-01  5.80000E-01  0.00000E+00 -4.00000E-01  5.00000E-03
GW     3    66  -6.40000E-01  0.00000E+00  5.00000E-01  6.40000E-01  0.00000E+00  5.00000E-01  5.00000E-03
GE     0     0   0.00000E+00  0.00000E+00  0.00000E+00  0.00000E+00  0.00000E+00  0.00000E+00  0.00000E+00
EX     0     1    26      0  1.00000E+00  0.00000E+00  0.00000E+00  0.00000E+00  0.00000E+00  0.00000E+00
FR     0    41     0      0  1.30000E+02  5.00000E-01  1.50000E+02  0.00000E+00  0.00000E+00  0.00000E+00
RP     0    19    37   1000  0.00000E+00  0.00000E+00  1.00000E+01  1.00000E+01  0.00000E+00  0.00000E+00
ZO    75     0     0      0  0.00000E+00  0.00000E+00  0.00000E+00  0.00000E+00  0.00000E+00  0.00000E+00
EN     0     0     0      0  0.00000E+00  0.00000E+00  0.00000E+00  0.00000E+00  0.00000E+00  0.00000E+00
