CM --- NEC2 Input File created or edited by xnec2c 3.5 ---
CM  Helix and screen reflector for 2400 MHz
CE --- End Comments ---
GH     1   507  3.34700E-02  5.30000E-01  2.15900E-02  2.15900E-02  2.15900E-02  2.15900E-02  1.50000E-03
GM     0     0  0.00000E+00  0.00000E+00  0.00000E+00  0.00000E+00  0.00000E+00  1.50600E-02  0.00000E+00
GW     2     7  0.00000E+00  0.00000E+00  0.00000E+00  2.15800E-02  0.00000E+00  1.50600E-02  1.50000E-03
GW     3    10  4.00000E-02  5.00000E-02  0.00000E+00  4.00000E-02 -5.00000E-02  0.00000E+00  1.50000E-03
GM     0     8  0.00000E+00  0.00000E+00  0.00000E+00 -1.00000E-02  0.00000E+00  0.00000E+00  3.00000E+00
GW     4    10  5.00000E-02  4.00000E-02  0.00000E+00 -5.00000E-02  4.00000E-02  0.00000E+00  1.50000E-03
GM     0     8  0.00000E+00  0.00000E+00  0.00000E+00  0.00000E+00 -1.00000E-02  0.00000E+00  4.00000E+00
GM     0     0  9.00000E+01  0.00000E+00  9.00000E+01 -2.51000E-01  0.00000E+00  0.00000E+00  0.00000E+00
GE     0     0  0.00000E+00  0.00000E+00  0.00000E+00  0.00000E+00  0.00000E+00  0.00000E+00  0.00000E+00
EX     0     2     1      0  1.00000E+00  0.00000E+00  0.00000E+00  0.00000E+00  0.00000E+00  0.00000E+00
FR     0    31     0      0  2.30000E+03  1.00000E+01  2.60000E+03  0.00000E+00  0.00000E+00  0.00000E+00
NH     0     0     0      0  0.00000E+00  0.00000E+00  0.00000E+00  0.00000E+00  0.00000E+00  0.00000E+00
NE     1    20     1     17  7.50000E-02  0.00000E+00 -8.00000E+01  7.50000E-02  0.00000E+00  1.00000E+01
RP     0    37    73   1000  0.00000E+00  0.00000E+00  5.00000E+00  5.00000E+00  0.00000E+00  0.00000E+00
EN     0     0     0      0  0.00000E+00  0.00000E+00  0.00000E+00  0.00000E+00  0.00000E+00  0.00000E+00
