CM --- NEC2 Input File created or edited by xnec2c 3.5 ---
CM Yagi antenna for 2.4 GHz
CE --- End Comments ---
GW     1    23  0.00000E+00  0.00000E+00 -2.62500E-02  0.00000E+00  0.00000E+00  2.62500E-02  1.50000E-03
GW     2    23 -1.30000E-02  0.00000E+00 -2.87500E-02 -1.30000E-02  0.00000E+00  2.87500E-02  1.50000E-03
GW     3    21  1.20000E-02  0.00000E+00 -2.48000E-02  1.20000E-02  0.00000E+00  2.48000E-02  1.50000E-03
GW     4    20  3.18000E-02  0.00000E+00 -2.44000E-02  3.18000E-02  0.00000E+00  2.44000E-02  1.50000E-03
GW     5    20  5.93000E-02  0.00000E+00 -2.39000E-02  5.93000E-02  0.00000E+00  2.39000E-02  1.50000E-03
GW     6    20  8.93000E-02  0.00000E+00 -2.35000E-02  8.93000E-02  0.00000E+00  2.35000E-02  1.50000E-03
GW     7    20  1.24000E-01  0.00000E+00 -2.32500E-02  1.24000E-01  0.00000E+00  2.32500E-02  1.50000E-03
GW     8    20  1.61000E-01  0.00000E+00 -2.31000E-02  1.61000E-01  0.00000E+00  2.31000E-02  1.50000E-03
GW     9    20  2.00000E-01  0.00000E+00 -2.28500E-02  2.00000E-01  0.00000E+00  2.28500E-02  1.50000E-03
GW    10    20  2.40000E-01  0.00000E+00 -2.28500E-02  2.40000E-01  0.00000E+00  2.28500E-02  1.50000E-03
GW    11    20  2.80000E-01  0.00000E+00 -2.28500E-02  2.80000E-01  0.00000E+00  2.28500E-02  1.50000E-03
GM     0     0  0.00000E+00  0.00000E+00  0.00000E+00 -1.35000E-01  0.00000E+00  0.00000E+00  0.00000E+00
GE     0     0  0.00000E+00  0.00000E+00  0.00000E+00  0.00000E+00  0.00000E+00  0.00000E+00  0.00000E+00
EX     0     1    12      0  1.00000E+00  0.00000E+00  0.00000E+00  0.00000E+00  0.00000E+00  0.00000E+00
FR     0    41     0      0  2.00000E+03  2.00000E+01  2.80000E+03  0.00000E+00  0.00000E+00  0.00000E+00
RP     0    19    37      0  0.00000E+00  0.00000E+00  1.00000E+01  1.00000E+01  0.00000E+00  0.00000E+00
EN     0     0     0      0  0.00000E+00  0.00000E+00  0.00000E+00  0.00000E+00  0.00000E+00  0.00000E+00
