CM --- NEC2 Input File created or edited by xnec2c 3.5 ---
CM Corner reflector for 2.4 GHz
CE --- End Comments ---
GW     1    13  1.00000E-02  0.00000E+00  2.25000E-02  1.00000E-02  0.00000E+00 -2.25000E-02  1.50000E-03
GM     0    12  0.00000E+00  0.00000E+00  0.00000E+00  2.00000E-02  0.00000E+00  0.00000E+00  1.00000E+00
GW     2    13  0.00000E+00  1.00000E-02  2.25000E-02  0.00000E+00  1.00000E-02 -2.25000E-02  1.50000E-03
GM     0    12  0.00000E+00  0.00000E+00  0.00000E+00  0.00000E+00  2.00000E-02  0.00000E+00  2.00000E+00
GW     3    15  6.00000E-02  6.00000E-02  3.00000E-02  6.00000E-02  6.00000E-02 -3.00000E-02  1.50000E-03
GM     0     0  0.00000E+00  0.00000E+00  0.00000E+00 -1.00000E-01 -1.00000E-01  0.00000E+00  0.00000E+00
GE     0     0  0.00000E+00  0.00000E+00  0.00000E+00  0.00000E+00  0.00000E+00  0.00000E+00  0.00000E+00
EX     0     3     8      0  1.00000E+00  0.00000E+00  0.00000E+00  0.00000E+00  0.00000E+00  0.00000E+00
FR     0    21     0      0  2.00000E+03  5.00000E+01  3.00000E+03  0.00000E+00  0.00000E+00  0.00000E+00
RP     0    19    37      0  0.00000E+00  0.00000E+00  1.00000E+01  1.00000E+01  0.00000E+00  0.00000E+00
EN     0     0     0      0  0.00000E+00  0.00000E+00  0.00000E+00  0.00000E+00  0.00000E+00  0.00000E+00
