CM --- NEC2 Input File created or edited by xnec2c 3.5 ---
CM 3 Element Delta Loop beam for 15m
CM NOTE: This input file uses the modified GS command available
CM in xnec2c, where scaling is specified for a range of tag
CM numbers. It is NOT compatible with the standard NEC2 or its
CM translation to C, nec2c. BEWARE!
CE --- End Comments ---
GW     1    17  0.00000E+00  2.49360E+00  1.43968E+00  0.00000E+00 -2.49360E+00  1.43968E+00  1.00000E-02
GW     2    17 -3.00000E+00  2.49360E+00  1.43968E+00 -3.00000E+00 -2.49360E+00  1.43968E+00  1.00000E-02
GS     2     2  1.03000E+00  0.00000E+00  0.00000E+00  0.00000E+00  0.00000E+00  0.00000E+00  0.00000E+00
GW     3    17  2.50000E+00  2.49360E+00  1.43968E+00  2.50000E+00 -2.49360E+00  1.43968E+00  1.00000E-02
GS     3     3  9.80000E-01  0.00000E+00  0.00000E+00  0.00000E+00  0.00000E+00  0.00000E+00  0.00000E+00
GM     0     2  1.20000E+02  0.00000E+00  0.00000E+00  0.00000E+00  0.00000E+00  0.00000E+00  1.00000E+00
GE     0     0  0.00000E+00  0.00000E+00  0.00000E+00  0.00000E+00  0.00000E+00  0.00000E+00  0.00000E+00
EX     0     1     9      0  1.00000E+00  0.00000E+00  0.00000E+00  0.00000E+00  0.00000E+00  0.00000E+00
FR     0    21     0      0  2.00000E+01  1.00000E-01  2.20000E+01  0.00000E+00  0.00000E+00  0.00000E+00
RP     0    19    37   1000  0.00000E+00  0.00000E+00  1.00000E+01  1.00000E+01  0.00000E+00  0.00000E+00
EN     0     0     0      0  0.00000E+00  0.00000E+00  0.00000E+00  0.00000E+00  0.00000E+00  0.00000E+00
