CM --- NEC2 Input File created or edited by xnec2c 3.5 ---
CM Top-loaded tower for 1.0 MHz, over perfect ground.
CM Each leg is loaded by an inductance to ground.
CM Tower is fed at one of the loaded legs.
CE --- End Comments ---
GW     1     1   1.24900E+00  0.00000E+00  1.24900E+00  0.00000E+00  1.24900E+00  1.24900E+00  5.00000E-02
GW     1     1   1.24900E+00  0.00000E+00  0.00000E+00  0.00000E+00  1.24900E+00  1.24900E+00  5.00000E-02
GM     0     8   0.00000E+00  0.00000E+00  0.00000E+00  0.00000E+00  0.00000E+00  1.24900E+00  0.00000E+00
GW     1     6   1.24900E+00  0.00000E+00  0.00000E+00  1.24900E+00  0.00000E+00  1.12400E+01  5.00000E-02
GM     0     0   0.00000E+00  0.00000E+00  0.00000E+00  0.00000E+00  0.00000E+00  1.24900E+00  0.00000E+00
GW     2     4   8.92500E+00 -1.83600E+00  1.24900E+01  1.24900E+00  0.00000E+00  1.24900E+01  5.00000E-02
GW     2     4   8.92500E+00  1.83600E+00  1.24900E+01  1.24900E+00  0.00000E+00  1.24900E+01  5.00000E-02
GW     2     4   7.39500E+00 -4.95300E+00  1.24900E+01  1.24900E+00  0.00000E+00  1.24900E+01  5.00000E-02
GW     2     4   7.39500E+00  4.95300E+00  1.24900E+01  1.24900E+00  0.00000E+00  1.24900E+01  5.00000E-02
GW     2     1   1.24900E+00  0.00000E+00  1.24900E+00  0.00000E+00  1.24900E+00  1.24900E+00  5.00000E-02
GW     3     1   1.24900E+00  0.00000E+00  0.00000E+00  1.24900E+00  0.00000E+00  1.24900E+00  5.00000E-02
GS     0     0   1.25000E+00  0.00000E+00  0.00000E+00  0.00000E+00  0.00000E+00  0.00000E+00  0.00000E+00
GR     3     4   0.00000E+00  0.00000E+00  0.00000E+00  0.00000E+00  0.00000E+00  0.00000E+00  0.00000E+00
GE     1     0   0.00000E+00  0.00000E+00  0.00000E+00  0.00000E+00  0.00000E+00  0.00000E+00  0.00000E+00
GN     1     0     0      0  0.00000E+00  0.00000E+00  0.00000E+00  0.00000E+00  0.00000E+00  0.00000E+00
EK     0     0     0      0  0.00000E+00  0.00000E+00  0.00000E+00  0.00000E+00  0.00000E+00  0.00000E+00
EX     0     3     1      0  1.00000E+00  0.00000E+00  0.00000E+00  0.00000E+00  0.00000E+00  0.00000E+00
LD     0     3     1      1  0.00000E+00  8.50000E-05  0.00000E+00  0.00000E+00  0.00000E+00  0.00000E+00
LD     0     6     1      1  0.00000E+00  8.50000E-05  0.00000E+00  0.00000E+00  0.00000E+00  0.00000E+00
LD     0     9     1      1  0.00000E+00  8.50000E-05  0.00000E+00  0.00000E+00  0.00000E+00  0.00000E+00
LD     0    12     1      1  0.00000E+00  8.50000E-05  0.00000E+00  0.00000E+00  0.00000E+00  0.00000E+00
NH     0     0     0      0  0.00000E+00  0.00000E+00  0.00000E+00  0.00000E+00  0.00000E+00  0.00000E+00
NE     0     1    20     15  0.00000E+00 -1.90000E+01  2.00000E+00  0.00000E+00  2.00000E+00  2.00000E+00
RP     0    19    37   1000  0.00000E+00  0.00000E+00  5.00000E+00  1.00000E+01  0.00000E+00  0.00000E+00
FR     0    21     0      0  9.80000E-01  2.00000E-03  0.00000E+00  0.00000E+00  0.00000E+00  0.00000E+00
EN     0     0     0      0  0.00000E+00  0.00000E+00  0.00000E+00  0.00000E+00  0.00000E+00  0.00000E+00
