CM --- NEC2 Input File created or edited by xnec2c 3.5 ---
CM  Top-loaded helical vertical for 1.0 MHz, over perfect ground.
CM  The input impedance is such that a 16:1 quadrifilar toroid
CM  transformer should raise it to 50 Ohms.
CE --- End Comments ---
GW     1     3   0.00000E+00  0.00000E+00  1.32000E+01  5.99500E+00  0.00000E+00  1.32000E+01  3.00000E-02
GW     1     1   5.99500E+00  0.00000E+00  1.32000E+01  5.53800E+00  2.29100E+00  1.32000E+01  3.00000E-02
GR     0    16   0.00000E+00  0.00000E+00  0.00000E+00  0.00000E+00  0.00000E+00  0.00000E+00  0.00000E+00
GW     1     1   1.00000E+00  0.00000E+00  1.30000E+01  0.00000E+00  0.00000E+00  1.32000E+01  3.00000E-02
GH     2    80  1.30000E+00  1.30000E+01  1.00000E+00  1.00000E+00  1.00000E+00  1.00000E+00  3.00000E-02
GE     1     0   0.00000E+00  0.00000E+00  0.00000E+00  0.00000E+00  0.00000E+00  0.00000E+00  0.00000E+00
GN     1     0     0      0  0.00000E+00  0.00000E+00  0.00000E+00  0.00000E+00  0.00000E+00  0.00000E+00
FR     0    21     0      0  9.80000E-01  2.00000E-03  0.00000E+00  0.00000E+00  0.00000E+00  0.00000E+00
EX     0     2     1      0  1.00000E+00  0.00000E+00  0.00000E+00  0.00000E+00  0.00000E+00  0.00000E+00
LD     5     0     0      0  3.70000E+07  0.00000E+00  0.00000E+00  0.00000E+00  0.00000E+00  0.00000E+00
NH     0     0     0      0  0.00000E+00  0.00000E+00  0.00000E+00  0.00000E+00  0.00000E+00  0.00000E+00
NE     0     1    20     15  0.00000E+00 -1.42500E+01  1.50000E+00  0.00000E+00  1.50000E+00  1.50000E+00
RP     0    19    37   1000  0.00000E+00  0.00000E+00  5.00000E+00  1.00000E+01  0.00000E+00  0.00000E+00
ZO     3     0     0      0  0.00000E+00  0.00000E+00  0.00000E+00  0.00000E+00  0.00000E+00  0.00000E+00
EN     0     0     0      0  0.00000E+00  0.00000E+00  0.00000E+00  0.00000E+00  0.00000E+00  0.00000E+00
