CM --- NEC2 Input File created or edited by xnec2c 3.5 ---
CM Dual band base-loaded 7 & 14 MHz Ground Plane.
CM Infinite perfect ground
CE --- End Comments ---
GW     1    20   0.00000E+00  0.00000E+00  0.00000E+00  0.00000E+00  0.00000E+00  1.25000E+01  2.50000E-02
GE     1     0   0.00000E+00  0.00000E+00  0.00000E+00  0.00000E+00  0.00000E+00  0.00000E+00  0.00000E+00
GN     0    16     0      0  1.20000E+01  5.00000E-02  1.00000E+01  1.00000E-02  0.00000E+00  0.00000E+00
EX     0     1     1      0  1.00000E+00  0.00000E+00  0.00000E+00  0.00000E+00  0.00000E+00  0.00000E+00
FR     0    46     0     0  6.00000E+00  2.00000E-01  1.50000E+01  0.00000E+00  0.00000E+00  0.00000E+00
LD     0     1     1     1  0.00000E+00  5.80000E-06  5.80000E-11  0.00000E+00  0.00000E+00  0.00000E+00
NH     0     0     0      0  0.00000E+00  0.00000E+00  0.00000E+00  0.00000E+00  0.00000E+00  0.00000E+00
NE     0     1    20     15  0.00000E+00 -9.50000E+00  1.00000E+00  0.00000E+00  1.00000E+00  1.00000E+00
RP     0    19    37   1000  0.00000E+00  0.00000E+00  5.00000E+00  1.00000E+01  0.00000E+00  0.00000E+00
EN     0     0     0      0  0.00000E+00  0.00000E+00  0.00000E+00  0.00000E+00  0.00000E+00  0.00000E+00
