CM --- NEC2 Input File created or edited by xnec2c 3.5 ---
CM  14 MHz vertical whip on a car roof
CE --- End Comments ---
GW     1     9  0.00000E+00  0.00000E+00  0.00000E+00  2.69000E+00  0.00000E+00  0.00000E+00  4.80000E-02
GW     1     3  2.69000E+00  0.00000E+00  0.00000E+00  2.69000E+00  0.00000E+00  7.90000E-01  4.80000E-02
GW     1     9  2.69000E+00  0.00000E+00  7.90000E-01  0.00000E+00  0.00000E+00  7.90000E-01  4.80000E-02
GW     1     3  0.00000E+00  0.00000E+00  7.90000E-01  0.00000E+00  0.00000E+00  0.00000E+00  4.80000E-02
GW     1     4  2.69000E+00  0.00000E+00  7.90000E-01  3.84000E+00  0.00000E+00  6.70000E-01  4.80000E-02
GW     1     3  3.84000E+00  0.00000E+00  6.70000E-01  3.84000E+00  0.00000E+00  0.00000E+00  4.80000E-02
GW     1     4  3.84000E+00  0.00000E+00  0.00000E+00  2.69000E+00  0.00000E+00  0.00000E+00  4.80000E-02
GW     2     3  3.84000E+00  0.00000E+00  6.70000E-01  3.84000E+00  8.40000E-01  6.70000E-01  4.80000E-02
GW     2     4  3.84000E+00  8.40000E-01  6.70000E-01  2.69000E+00  8.40000E-01  7.90000E-01  4.80000E-02
GW     2     3  2.69000E+00  8.40000E-01  7.90000E-01  2.69000E+00  0.00000E+00  7.90000E-01  4.80000E-02
GW     3     3  3.84000E+00  0.00000E+00  0.00000E+00  3.84000E+00  8.40000E-01  0.00000E+00  4.80000E-02
GW     3     3  3.84000E+00  8.40000E-01  0.00000E+00  3.84000E+00  8.40000E-01  6.70000E-01  4.80000E-02
GW     4     6  4.80000E-01  8.40000E-01  1.25000E+00  2.14000E+00  8.40000E-01  1.25000E+00  4.80000E-02
GW     4     3  2.14000E+00  8.40000E-01  1.25000E+00  2.14000E+00  0.00000E+00  1.25000E+00  4.80000E-02
GW     4     6  2.14000E+00  0.00000E+00  1.25000E+00  4.80000E-01  0.00000E+00  1.25000E+00  4.80000E-02
GW     4     3  4.80000E-01  0.00000E+00  1.25000E+00  4.80000E-01  8.40000E-01  1.25000E+00  4.80000E-02
GW     5     3  0.00000E+00  0.00000E+00  0.00000E+00  0.00000E+00  8.40000E-01  0.00000E+00  4.80000E-02
GW     5     3  0.00000E+00  8.40000E-01  0.00000E+00  0.00000E+00  8.40000E-01  7.90000E-01  4.80000E-02
GW     5     3  0.00000E+00  8.40000E-01  7.90000E-01  0.00000E+00  0.00000E+00  7.90000E-01  4.80000E-02
GW     6     3  0.00000E+00  0.00000E+00  7.90000E-01  4.80000E-01  0.00000E+00  1.25000E+00  4.80000E-02
GW     7     2  1.40000E+00  0.00000E+00  7.90000E-01  1.40000E+00  0.00000E+00  1.25000E+00  4.80000E-02
GW     8     3  2.14000E+00  0.00000E+00  1.25000E+00  2.69000E+00  0.00000E+00  7.90000E-01  4.80000E-02
GW     9     3 -0.00000E+00  1.68000E+00 -0.00000E+00 -0.00000E+00  1.68000E+00  7.90000E-01  4.80000E-02
GW     9     9 -0.00000E+00  1.68000E+00  7.90000E-01  2.69000E+00  1.68000E+00  7.90000E-01  4.80000E-02
GW     9     3  2.69000E+00  1.68000E+00  7.90000E-01  2.69000E+00  1.68000E+00 -0.00000E+00  4.80000E-02
GW     9     9  2.69000E+00  1.68000E+00 -0.00000E+00 -0.00000E+00  1.68000E+00 -0.00000E+00  4.80000E-02
GW    10     4  2.69000E+00  1.68000E+00 -0.00000E+00  3.84000E+00  1.68000E+00 -0.00000E+00  4.80000E-02
GW    10     3  3.84000E+00  1.68000E+00 -0.00000E+00  3.84000E+00  1.68000E+00  6.70000E-01  4.80000E-02
GW    10     4  3.84000E+00  1.68000E+00  6.70000E-01  2.69000E+00  1.68000E+00  7.90000E-01  4.80000E-02
GW    11     3  2.69000E+00  1.68000E+00  7.90000E-01  2.69000E+00  8.40000E-01  7.90000E-01  4.80000E-02
GW    11     3  3.84000E+00  8.40000E-01  6.70000E-01  3.84000E+00  1.68000E+00  6.70000E-01  4.80000E-02
GW    12     3  3.84000E+00  8.40000E-01 -0.00000E+00  3.84000E+00  1.68000E+00 -0.00000E+00  4.80000E-02
GW    13     3  2.14000E+00  8.40000E-01  1.25000E+00  2.14000E+00  1.68000E+00  1.25000E+00  4.80000E-02
GW    13     6  2.14000E+00  1.68000E+00  1.25000E+00  4.80000E-01  1.68000E+00  1.25000E+00  4.80000E-02
GW    13     3  4.80000E-01  1.68000E+00  1.25000E+00  4.80000E-01  8.40000E-01  1.25000E+00  4.80000E-02
GW    14     3 -0.00000E+00  1.68000E+00 -0.00000E+00 -0.00000E+00  8.40000E-01 -0.00000E+00  4.80000E-02
GW    14     3 -0.00000E+00  8.40000E-01  7.90000E-01 -0.00000E+00  1.68000E+00  7.90000E-01  4.80000E-02
GW    15     3 -0.00000E+00  1.68000E+00  7.90000E-01  4.80000E-01  1.68000E+00  1.25000E+00  4.80000E-02
GW    16     2  1.40000E+00  1.68000E+00  7.90000E-01  1.40000E+00  1.68000E+00  1.25000E+00  4.80000E-02
GW    17     3  2.14000E+00  1.68000E+00  1.25000E+00  2.69000E+00  1.68000E+00  7.90000E-01  4.80000E-02
GW     1     1  0.00000E+00  0.00000E+00  2.63000E-01  2.99000E-01  0.00000E+00  2.63000E-01  4.80000E-02
GW     1     1  2.99000E-01  0.00000E+00  2.63000E-01  5.98000E-01  0.00000E+00  2.63000E-01  4.80000E-02
GW     1     1  5.98000E-01  0.00000E+00  2.63000E-01  8.97000E-01  0.00000E+00  2.63000E-01  4.80000E-02
GW     1     1  8.97000E-01  0.00000E+00  2.63000E-01  1.19600E+00  0.00000E+00  2.63000E-01  4.80000E-02
GW     1     1  1.19600E+00  0.00000E+00  2.63000E-01  1.49400E+00  0.00000E+00  2.63000E-01  4.80000E-02
GW     1     1  1.49400E+00  0.00000E+00  2.63000E-01  1.79300E+00  0.00000E+00  2.63000E-01  4.80000E-02
GW     1     1  1.79300E+00  0.00000E+00  2.63000E-01  2.09200E+00  0.00000E+00  2.63000E-01  4.80000E-02
GW     1     1  2.09200E+00  0.00000E+00  2.63000E-01  2.39100E+00  0.00000E+00  2.63000E-01  4.80000E-02
GW     1     1  2.39100E+00  0.00000E+00  2.63000E-01  2.69000E+00  0.00000E+00  2.63000E-01  4.80000E-02
GW     1     1  0.00000E+00  0.00000E+00  5.27000E-01  2.99000E-01  0.00000E+00  5.27000E-01  4.80000E-02
GW     1     1  2.99000E-01  0.00000E+00  5.27000E-01  5.98000E-01  0.00000E+00  5.27000E-01  4.80000E-02
GW     1     1  5.98000E-01  0.00000E+00  5.27000E-01  8.97000E-01  0.00000E+00  5.27000E-01  4.80000E-02
GW     1     1  8.97000E-01  0.00000E+00  5.27000E-01  1.19600E+00  0.00000E+00  5.27000E-01  4.80000E-02
GW     1     1  1.19600E+00  0.00000E+00  5.27000E-01  1.49400E+00  0.00000E+00  5.27000E-01  4.80000E-02
GW     1     1  1.49400E+00  0.00000E+00  5.27000E-01  1.79300E+00  0.00000E+00  5.27000E-01  4.80000E-02
GW     1     1  1.79300E+00  0.00000E+00  5.27000E-01  2.09200E+00  0.00000E+00  5.27000E-01  4.80000E-02
GW     1     1  2.09200E+00  0.00000E+00  5.27000E-01  2.39100E+00  0.00000E+00  5.27000E-01  4.80000E-02
GW     1     1  2.39100E+00  0.00000E+00  5.27000E-01  2.69000E+00  0.00000E+00  5.27000E-01  4.80000E-02
GW     1     3  2.99000E-01  0.00000E+00  0.00000E+00  2.99000E-01  0.00000E+00  7.90000E-01  4.80000E-02
GW     1     3  5.98000E-01  0.00000E+00  0.00000E+00  5.98000E-01  0.00000E+00  7.90000E-01  4.80000E-02
GW     1     3  8.97000E-01  0.00000E+00  0.00000E+00  8.97000E-01  0.00000E+00  7.90000E-01  4.80000E-02
GW     1     3  1.19600E+00  0.00000E+00  0.00000E+00  1.19600E+00  0.00000E+00  7.90000E-01  4.80000E-02
GW     1     3  1.49400E+00  0.00000E+00  0.00000E+00  1.49400E+00  0.00000E+00  7.90000E-01  4.80000E-02
GW     1     3  1.79300E+00  0.00000E+00  0.00000E+00  1.79300E+00  0.00000E+00  7.90000E-01  4.80000E-02
GW     1     3  2.09200E+00  0.00000E+00  0.00000E+00  2.09200E+00  0.00000E+00  7.90000E-01  4.80000E-02
GW     1     3  2.39100E+00  0.00000E+00  0.00000E+00  2.39100E+00  0.00000E+00  7.90000E-01  4.80000E-02
GW     1     1  3.84000E+00  0.00000E+00  2.23000E-01  3.55300E+00  0.00000E+00  2.33000E-01  4.80000E-02
GW     1     1  3.55300E+00  0.00000E+00  2.33000E-01  3.26500E+00  0.00000E+00  2.43000E-01  4.80000E-02
GW     1     1  3.26500E+00  0.00000E+00  2.43000E-01  2.97800E+00  0.00000E+00  2.53000E-01  4.80000E-02
GW     1     1  2.97800E+00  0.00000E+00  2.53000E-01  2.69000E+00  0.00000E+00  2.63000E-01  4.80000E-02
GW     1     1  3.84000E+00  0.00000E+00  4.47000E-01  3.55300E+00  0.00000E+00  4.67000E-01  4.80000E-02
GW     1     1  3.55300E+00  0.00000E+00  4.67000E-01  3.26500E+00  0.00000E+00  4.87000E-01  4.80000E-02
GW     1     1  3.26500E+00  0.00000E+00  4.87000E-01  2.97800E+00  0.00000E+00  5.07000E-01  4.80000E-02
GW     1     1  2.97800E+00  0.00000E+00  5.07000E-01  2.69000E+00  0.00000E+00  5.27000E-01  4.80000E-02
GW     1     3  3.55300E+00  0.00000E+00  0.00000E+00  3.55300E+00  0.00000E+00  7.00000E-01  4.80000E-02
GW     1     3  3.26500E+00  0.00000E+00  0.00000E+00  3.26500E+00  0.00000E+00  7.30000E-01  4.80000E-02
GW     1     3  2.97800E+00  0.00000E+00  0.00000E+00  2.97800E+00  0.00000E+00  7.60000E-01  4.80000E-02
GW     2     1  2.69000E+00  2.80000E-01  7.90000E-01  2.97800E+00  2.80000E-01  7.60000E-01  4.80000E-02
GW     2     1  2.97800E+00  2.80000E-01  7.60000E-01  3.26500E+00  2.80000E-01  7.30000E-01  4.80000E-02
GW     2     1  3.26500E+00  2.80000E-01  7.30000E-01  3.55300E+00  2.80000E-01  7.00000E-01  4.80000E-02
GW     2     1  3.55300E+00  2.80000E-01  7.00000E-01  3.84000E+00  2.80000E-01  6.70000E-01  4.80000E-02
GW     2     1  2.69000E+00  5.60000E-01  7.90000E-01  2.97800E+00  5.60000E-01  7.60000E-01  4.80000E-02
GW     2     1  2.97800E+00  5.60000E-01  7.60000E-01  3.26500E+00  5.60000E-01  7.30000E-01  4.80000E-02
GW     2     1  3.26500E+00  5.60000E-01  7.30000E-01  3.55300E+00  5.60000E-01  7.00000E-01  4.80000E-02
GW     2     1  3.55300E+00  5.60000E-01  7.00000E-01  3.84000E+00  5.60000E-01  6.70000E-01  4.80000E-02
GW     2     3  2.97800E+00  0.00000E+00  7.60000E-01  2.97800E+00  8.40000E-01  7.60000E-01  4.80000E-02
GW     2     3  3.26500E+00  0.00000E+00  7.30000E-01  3.26500E+00  8.40000E-01  7.30000E-01  4.80000E-02
GW     2     3  3.55300E+00  0.00000E+00  7.00000E-01  3.55300E+00  8.40000E-01  7.00000E-01  4.80000E-02
GW     3     1  3.84000E+00  0.00000E+00  2.23000E-01  3.84000E+00  2.80000E-01  2.23000E-01  4.80000E-02
GW     3     1  3.84000E+00  2.80000E-01  2.23000E-01  3.84000E+00  5.60000E-01  2.23000E-01  4.80000E-02
GW     3     1  3.84000E+00  5.60000E-01  2.23000E-01  3.84000E+00  8.40000E-01  2.23000E-01  4.80000E-02
GW     3     1  3.84000E+00  0.00000E+00  4.47000E-01  3.84000E+00  2.80000E-01  4.47000E-01  4.80000E-02
GW     3     1  3.84000E+00  2.80000E-01  4.47000E-01  3.84000E+00  5.60000E-01  4.47000E-01  4.80000E-02
GW     3     1  3.84000E+00  5.60000E-01  4.47000E-01  3.84000E+00  8.40000E-01  4.47000E-01  4.80000E-02
GW     3     3  3.84000E+00  2.80000E-01  0.00000E+00  3.84000E+00  2.80000E-01  6.70000E-01  4.80000E-02
GW     3     3  3.84000E+00  5.60000E-01  0.00000E+00  3.84000E+00  5.60000E-01  6.70000E-01  4.80000E-02
GW     4     1  4.80000E-01  5.60000E-01  1.25000E+00  7.57000E-01  5.60000E-01  1.25000E+00  4.80000E-02
GW     4     1  7.57000E-01  5.60000E-01  1.25000E+00  1.03300E+00  5.60000E-01  1.25000E+00  4.80000E-02
GW     4     1  1.03300E+00  5.60000E-01  1.25000E+00  1.31000E+00  5.60000E-01  1.25000E+00  4.80000E-02
GW     4     1  1.31000E+00  5.60000E-01  1.25000E+00  1.58700E+00  5.60000E-01  1.25000E+00  4.80000E-02
GW     4     1  1.58700E+00  5.60000E-01  1.25000E+00  1.86300E+00  5.60000E-01  1.25000E+00  4.80000E-02
GW     4     1  1.86300E+00  5.60000E-01  1.25000E+00  2.14000E+00  5.60000E-01  1.25000E+00  4.80000E-02
GW     4     1  4.80000E-01  2.80000E-01  1.25000E+00  7.57000E-01  2.80000E-01  1.25000E+00  4.80000E-02
GW     4     1  7.57000E-01  2.80000E-01  1.25000E+00  1.03300E+00  2.80000E-01  1.25000E+00  4.80000E-02
GW     4     1  1.03300E+00  2.80000E-01  1.25000E+00  1.31000E+00  2.80000E-01  1.25000E+00  4.80000E-02
GW     4     1  1.31000E+00  2.80000E-01  1.25000E+00  1.58700E+00  2.80000E-01  1.25000E+00  4.80000E-02
GW     4     1  1.58700E+00  2.80000E-01  1.25000E+00  1.86300E+00  2.80000E-01  1.25000E+00  4.80000E-02
GW     4     1  1.86300E+00  2.80000E-01  1.25000E+00  2.14000E+00  2.80000E-01  1.25000E+00  4.80000E-02
GW     4     3  7.57000E-01  8.40000E-01  1.25000E+00  7.57000E-01  0.00000E+00  1.25000E+00  4.80000E-02
GW     4     3  1.03300E+00  8.40000E-01  1.25000E+00  1.03300E+00  0.00000E+00  1.25000E+00  4.80000E-02
GW     4     3  1.31000E+00  8.40000E-01  1.25000E+00  1.31000E+00  0.00000E+00  1.25000E+00  4.80000E-02
GW     4     3  1.58700E+00  8.40000E-01  1.25000E+00  1.58700E+00  0.00000E+00  1.25000E+00  4.80000E-02
GW     4     3  1.86300E+00  8.40000E-01  1.25000E+00  1.86300E+00  0.00000E+00  1.25000E+00  4.80000E-02
GW     5     1  0.00000E+00  0.00000E+00  2.63000E-01  0.00000E+00  2.80000E-01  2.63000E-01  4.80000E-02
GW     5     1  0.00000E+00  2.80000E-01  2.63000E-01  0.00000E+00  5.60000E-01  2.63000E-01  4.80000E-02
GW     5     1  0.00000E+00  5.60000E-01  2.63000E-01  0.00000E+00  8.40000E-01  2.63000E-01  4.80000E-02
GW     5     1  0.00000E+00  0.00000E+00  5.27000E-01  0.00000E+00  2.80000E-01  5.27000E-01  4.80000E-02
GW     5     1  0.00000E+00  2.80000E-01  5.27000E-01  0.00000E+00  5.60000E-01  5.27000E-01  4.80000E-02
GW     5     1  0.00000E+00  5.60000E-01  5.27000E-01  0.00000E+00  8.40000E-01  5.27000E-01  4.80000E-02
GW     5     3  0.00000E+00  2.80000E-01  0.00000E+00  0.00000E+00  2.80000E-01  7.90000E-01  4.80000E-02
GW     5     3  0.00000E+00  5.60000E-01  0.00000E+00  0.00000E+00  5.60000E-01  7.90000E-01  4.80000E-02
GW     9     1 -0.00000E+00  1.68000E+00  5.27000E-01  2.99000E-01  1.68000E+00  5.27000E-01  4.80000E-02
GW     9     1  2.99000E-01  1.68000E+00  5.27000E-01  5.98000E-01  1.68000E+00  5.27000E-01  4.80000E-02
GW     9     1  5.98000E-01  1.68000E+00  5.27000E-01  8.97000E-01  1.68000E+00  5.27000E-01  4.80000E-02
GW     9     1  8.97000E-01  1.68000E+00  5.27000E-01  1.19600E+00  1.68000E+00  5.27000E-01  4.80000E-02
GW     9     1  1.19600E+00  1.68000E+00  5.27000E-01  1.49400E+00  1.68000E+00  5.27000E-01  4.80000E-02
GW     9     1  1.49400E+00  1.68000E+00  5.27000E-01  1.79300E+00  1.68000E+00  5.27000E-01  4.80000E-02
GW     9     1  1.79300E+00  1.68000E+00  5.27000E-01  2.09200E+00  1.68000E+00  5.27000E-01  4.80000E-02
GW     9     1  2.09200E+00  1.68000E+00  5.27000E-01  2.39100E+00  1.68000E+00  5.27000E-01  4.80000E-02
GW     9     1  2.39100E+00  1.68000E+00  5.27000E-01  2.69000E+00  1.68000E+00  5.27000E-01  4.80000E-02
GW     9     1 -0.00000E+00  1.68000E+00  2.63000E-01  2.99000E-01  1.68000E+00  2.63000E-01  4.80000E-02
GW     9     1  2.99000E-01  1.68000E+00  2.63000E-01  5.98000E-01  1.68000E+00  2.63000E-01  4.80000E-02
GW     9     1  5.98000E-01  1.68000E+00  2.63000E-01  8.97000E-01  1.68000E+00  2.63000E-01  4.80000E-02
GW     9     1  8.97000E-01  1.68000E+00  2.63000E-01  1.19600E+00  1.68000E+00  2.63000E-01  4.80000E-02
GW     9     1  1.19600E+00  1.68000E+00  2.63000E-01  1.49400E+00  1.68000E+00  2.63000E-01  4.80000E-02
GW     9     1  1.49400E+00  1.68000E+00  2.63000E-01  1.79300E+00  1.68000E+00  2.63000E-01  4.80000E-02
GW     9     1  1.79300E+00  1.68000E+00  2.63000E-01  2.09200E+00  1.68000E+00  2.63000E-01  4.80000E-02
GW     9     1  2.09200E+00  1.68000E+00  2.63000E-01  2.39100E+00  1.68000E+00  2.63000E-01  4.80000E-02
GW     9     1  2.39100E+00  1.68000E+00  2.63000E-01  2.69000E+00  1.68000E+00  2.63000E-01  4.80000E-02
GW     9     3  2.99000E-01  1.68000E+00  7.90000E-01  2.99000E-01  1.68000E+00 -0.00000E+00  4.80000E-02
GW     9     3  5.98000E-01  1.68000E+00  7.90000E-01  5.98000E-01  1.68000E+00 -0.00000E+00  4.80000E-02
GW     9     3  8.97000E-01  1.68000E+00  7.90000E-01  8.97000E-01  1.68000E+00 -0.00000E+00  4.80000E-02
GW     9     3  1.19600E+00  1.68000E+00  7.90000E-01  1.19600E+00  1.68000E+00 -0.00000E+00  4.80000E-02
GW     9     3  1.49400E+00  1.68000E+00  7.90000E-01  1.49400E+00  1.68000E+00 -0.00000E+00  4.80000E-02
GW     9     3  1.79300E+00  1.68000E+00  7.90000E-01  1.79300E+00  1.68000E+00 -0.00000E+00  4.80000E-02
GW     9     3  2.09200E+00  1.68000E+00  7.90000E-01  2.09200E+00  1.68000E+00 -0.00000E+00  4.80000E-02
GW     9     3  2.39100E+00  1.68000E+00  7.90000E-01  2.39100E+00  1.68000E+00 -0.00000E+00  4.80000E-02
GW    10     1  2.69000E+00  1.68000E+00  2.63000E-01  2.97800E+00  1.68000E+00  2.53000E-01  4.80000E-02
GW    10     1  2.97800E+00  1.68000E+00  2.53000E-01  3.26500E+00  1.68000E+00  2.43000E-01  4.80000E-02
GW    10     1  3.26500E+00  1.68000E+00  2.43000E-01  3.55300E+00  1.68000E+00  2.33000E-01  4.80000E-02
GW    10     1  3.55300E+00  1.68000E+00  2.33000E-01  3.84000E+00  1.68000E+00  2.23000E-01  4.80000E-02
GW    10     1  2.69000E+00  1.68000E+00  5.27000E-01  2.97800E+00  1.68000E+00  5.07000E-01  4.80000E-02
GW    10     1  2.97800E+00  1.68000E+00  5.07000E-01  3.26500E+00  1.68000E+00  4.87000E-01  4.80000E-02
GW    10     1  3.26500E+00  1.68000E+00  4.87000E-01  3.55300E+00  1.68000E+00  4.67000E-01  4.80000E-02
GW    10     1  3.55300E+00  1.68000E+00  4.67000E-01  3.84000E+00  1.68000E+00  4.47000E-01  4.80000E-02
GW    10     3  2.97800E+00  1.68000E+00 -0.00000E+00  2.97800E+00  1.68000E+00  7.60000E-01  4.80000E-02
GW    10     3  3.26500E+00  1.68000E+00 -0.00000E+00  3.26500E+00  1.68000E+00  7.30000E-01  4.80000E-02
GW    10     3  3.55300E+00  1.68000E+00 -0.00000E+00  3.55300E+00  1.68000E+00  7.00000E-01  4.80000E-02
GW    11     1  3.84000E+00  1.40000E+00  6.70000E-01  3.55300E+00  1.40000E+00  7.00000E-01  4.80000E-02
GW    11     1  3.55300E+00  1.40000E+00  7.00000E-01  3.26500E+00  1.40000E+00  7.30000E-01  4.80000E-02
GW    11     1  3.26500E+00  1.40000E+00  7.30000E-01  2.97800E+00  1.40000E+00  7.60000E-01  4.80000E-02
GW    11     1  2.97800E+00  1.40000E+00  7.60000E-01  2.69000E+00  1.40000E+00  7.90000E-01  4.80000E-02
GW    11     1  3.84000E+00  1.12000E+00  6.70000E-01  3.55300E+00  1.12000E+00  7.00000E-01  4.80000E-02
GW    11     1  3.55300E+00  1.12000E+00  7.00000E-01  3.26500E+00  1.12000E+00  7.30000E-01  4.80000E-02
GW    11     1  3.26500E+00  1.12000E+00  7.30000E-01  2.97800E+00  1.12000E+00  7.60000E-01  4.80000E-02
GW    11     1  2.97800E+00  1.12000E+00  7.60000E-01  2.69000E+00  1.12000E+00  7.90000E-01  4.80000E-02
GW    11     3  3.55300E+00  1.68000E+00  7.00000E-01  3.55300E+00  8.40000E-01  7.00000E-01  4.80000E-02
GW    11     3  3.26500E+00  1.68000E+00  7.30000E-01  3.26500E+00  8.40000E-01  7.30000E-01  4.80000E-02
GW    11     3  2.97800E+00  1.68000E+00  7.60000E-01  2.97800E+00  8.40000E-01  7.60000E-01  4.80000E-02
GW    12     1  3.84000E+00  8.40000E-01  2.23000E-01  3.84000E+00  1.12000E+00  2.23000E-01  4.80000E-02
GW    12     1  3.84000E+00  1.12000E+00  2.23000E-01  3.84000E+00  1.40000E+00  2.23000E-01  4.80000E-02
GW    12     1  3.84000E+00  1.40000E+00  2.23000E-01  3.84000E+00  1.68000E+00  2.23000E-01  4.80000E-02
GW    12     1  3.84000E+00  8.40000E-01  4.47000E-01  3.84000E+00  1.12000E+00  4.47000E-01  4.80000E-02
GW    12     1  3.84000E+00  1.12000E+00  4.47000E-01  3.84000E+00  1.40000E+00  4.47000E-01  4.80000E-02
GW    12     1  3.84000E+00  1.40000E+00  4.47000E-01  3.84000E+00  1.68000E+00  4.47000E-01  4.80000E-02
GW    12     3  3.84000E+00  1.12000E+00 -0.00000E+00  3.84000E+00  1.12000E+00  6.70000E-01  4.80000E-02
GW    12     3  3.84000E+00  1.40000E+00 -0.00000E+00  3.84000E+00  1.40000E+00  6.70000E-01  4.80000E-02
GW    13     1  4.80000E-01  1.12000E+00  1.25000E+00  7.57000E-01  1.12000E+00  1.25000E+00  4.80000E-02
GW    13     1  7.57000E-01  1.12000E+00  1.25000E+00  1.03300E+00  1.12000E+00  1.25000E+00  4.80000E-02
GW    13     1  1.03300E+00  1.12000E+00  1.25000E+00  1.31000E+00  1.12000E+00  1.25000E+00  4.80000E-02
GW    13     1  1.31000E+00  1.12000E+00  1.25000E+00  1.58700E+00  1.12000E+00  1.25000E+00  4.80000E-02
GW    13     1  1.58700E+00  1.12000E+00  1.25000E+00  1.86300E+00  1.12000E+00  1.25000E+00  4.80000E-02
GW    13     1  1.86300E+00  1.12000E+00  1.25000E+00  2.14000E+00  1.12000E+00  1.25000E+00  4.80000E-02
GW    13     1  4.80000E-01  1.40000E+00  1.25000E+00  7.57000E-01  1.40000E+00  1.25000E+00  4.80000E-02
GW    13     1  7.57000E-01  1.40000E+00  1.25000E+00  1.03300E+00  1.40000E+00  1.25000E+00  4.80000E-02
GW    13     1  1.03300E+00  1.40000E+00  1.25000E+00  1.31000E+00  1.40000E+00  1.25000E+00  4.80000E-02
GW    13     1  1.31000E+00  1.40000E+00  1.25000E+00  1.58700E+00  1.40000E+00  1.25000E+00  4.80000E-02
GW    13     1  1.58700E+00  1.40000E+00  1.25000E+00  1.86300E+00  1.40000E+00  1.25000E+00  4.80000E-02
GW    13     1  1.86300E+00  1.40000E+00  1.25000E+00  2.14000E+00  1.40000E+00  1.25000E+00  4.80000E-02
GW    13     3  7.57000E-01  8.40000E-01  1.25000E+00  7.57000E-01  1.68000E+00  1.25000E+00  4.80000E-02
GW    13     3  1.03300E+00  8.40000E-01  1.25000E+00  1.03300E+00  1.68000E+00  1.25000E+00  4.80000E-02
GW    13     3  1.31000E+00  8.40000E-01  1.25000E+00  1.31000E+00  1.68000E+00  1.25000E+00  4.80000E-02
GW    13     3  1.58700E+00  8.40000E-01  1.25000E+00  1.58700E+00  1.68000E+00  1.25000E+00  4.80000E-02
GW    13     3  1.86300E+00  8.40000E-01  1.25000E+00  1.86300E+00  1.68000E+00  1.25000E+00  4.80000E-02
GW    14     1 -0.00000E+00  1.68000E+00  2.63000E-01 -0.00000E+00  1.40000E+00  2.63000E-01  4.80000E-02
GW    14     1 -0.00000E+00  1.40000E+00  2.63000E-01 -0.00000E+00  1.12000E+00  2.63000E-01  4.80000E-02
GW    14     1 -0.00000E+00  1.12000E+00  2.63000E-01 -0.00000E+00  8.40000E-01  2.63000E-01  4.80000E-02
GW    14     1 -0.00000E+00  1.68000E+00  5.27000E-01 -0.00000E+00  1.40000E+00  5.27000E-01  4.80000E-02
GW    14     1 -0.00000E+00  1.40000E+00  5.27000E-01 -0.00000E+00  1.12000E+00  5.27000E-01  4.80000E-02
GW    14     1 -0.00000E+00  1.12000E+00  5.27000E-01 -0.00000E+00  8.40000E-01  5.27000E-01  4.80000E-02
GW    14     3 -0.00000E+00  1.40000E+00 -0.00000E+00 -0.00000E+00  1.40000E+00  7.90000E-01  4.80000E-02
GW    14     3 -0.00000E+00  1.12000E+00 -0.00000E+00 -0.00000E+00  1.12000E+00  7.90000E-01  4.80000E-02
GW    18    13  1.31000E+00  8.40000E-01  1.25000E+00  1.31000E+00  8.40000E-01  6.70000E+00  5.00000E-03
GE     0     0  0.00000E+00  0.00000E+00  0.00000E+00  0.00000E+00  0.00000E+00  0.00000E+00  0.00000E+00
FR     0    11     0      0  1.30000E+01  2.00000E-01  0.00000E+00  0.00000E+00  0.00000E+00  0.00000E+00
EX     0    18     1      0  1.00000E+00  0.00000E+00  0.00000E+00  0.00000E+00  0.00000E+00  0.00000E+00
NH     0     0     0      0  0.00000E+00  0.00000E+00  0.00000E+00  0.00000E+00  0.00000E+00  0.00000E+00
NE     0     1    16     10  1.31000E+00 -6.60000E+00  5.00000E-01  0.00000E+00  1.00000E+00  1.00000E+00
RP     0    19    37   1000  0.00000E+00  0.00000E+00  5.00000E+00  1.00000E+01  0.00000E+00  0.00000E+00
EN     0     0     0      0  0.00000E+00  0.00000E+00  0.00000E+00  0.00000E+00  0.00000E+00  0.00000E+00
