CM --- NEC2 Input File created or edited by xnec2c 3.5 ---
CM  Helix and radial reflector for 1296 MHz
CE --- End Comments ---
GW     2    10   0.00000E+00  0.00000E+00  0.00000E+00  4.50000E-02  0.00000E+00  0.00000E+00  3.00000E-03
GR     0     8   0.00000E+00  0.00000E+00  0.00000E+00  0.00000E+00  0.00000E+00  0.00000E+00  0.00000E+00
GM     0     0   0.00000E+00  0.00000E+00  0.00000E+00  0.00000E+00  0.00000E+00 -3.00000E-02  0.00000E+00
GH     1   478  6.70000E-02  1.00000E+00  4.30000E-02  4.30000E-02  4.30000E-02  4.30000E-02  3.00000E-03
GM     0     0   0.00000E+00  0.00000E+00  0.00000E+00  0.00000E+00  0.00000E+00  3.00000E-02  0.00000E+00
GW     3     7   0.00000E+00  0.00000E+00  0.00000E+00  4.30000E-02  0.00000E+00  3.00000E-02  3.00000E-03
GM     0     0   9.00000E+01  0.00000E+00  9.00000E+01 -5.00000E-01  0.00000E+00  0.00000E+00  0.00000E+00
GE     0     0   0.00000E+00  0.00000E+00  0.00000E+00  0.00000E+00  0.00000E+00  0.00000E+00  0.00000E+00
EX     0     3     1      0  1.00000E+00  0.00000E+00  0.00000E+00  0.00000E+00  0.00000E+00  0.00000E+00
FR     0    11     0      0  1.20000E+03  2.00000E+01  0.00000E+00  0.00000E+00  0.00000E+00  0.00000E+00
NH     0     0     0      0  0.00000E+00  0.00000E+00  0.00000E+00  0.00000E+00  0.00000E+00  0.00000E+00
NE     1    20     1     17  7.50000E-02  0.00000E+00 -8.00000E+01  7.50000E-02  0.00000E+00  1.00000E+01
RP     0    37    73   1000  0.00000E+00  0.00000E+00  5.00000E+00  5.00000E+00  0.00000E+00  0.00000E+00
EN     0     0     0      0  0.00000E+00  0.00000E+00  0.00000E+00  0.00000E+00  0.00000E+00  0.00000E+00
