CM --- NEC2 Input File created or edited by xnec2c 3.5 ---
CM 5/8 lambda Ground Plane for 2m mounted on a 3m pole
CM It just shows where your RF goes with such a setup ;-)
CE --- End Comments ---
GW     1    11   0.00000E+00  0.00000E+00  0.00000E+00  4.80000E-01  0.00000E+00  0.00000E+00  7.50000E-03
GR     0     4   0.00000E+00  0.00000E+00  0.00000E+00  0.00000E+00  0.00000E+00  0.00000E+00  0.00000E+00
GW     2    32   0.00000E+00  0.00000E+00  0.00000E+00  0.00000E+00  0.00000E+00  1.28000E+00  7.50000E-03
GW     3    75   0.00000E+00  0.00000E+00  0.00000E+00  0.00000E+00  0.00000E+00 -3.00000E+00  2.50000E-02
GM     0     0   0.00000E+00  0.00000E+00  0.00000E+00  0.00000E+00  0.00000E+00  1.25000E+00  0.00000E+00
GE     0     0   0.00000E+00  0.00000E+00  0.00000E+00  0.00000E+00  0.00000E+00  0.00000E+00  0.00000E+00
EX     0     2     1      0  1.00000E+00  0.00000E+00  0.00000E+00  0.00000E+00  0.00000E+00  0.00000E+00
FR     0    21     0      0  1.40000E+02  5.00000E-01  1.50000E+02  0.00000E+00  0.00000E+00  0.00000E+00
RP     0    19    37      0  0.00000E+00  0.00000E+00  1.00000E+01  1.00000E+01  0.00000E+00  0.00000E+00
LD     1     2     1      1  1.00000E+06  1.50000E-07  1.00000E-12  0.00000E+00  0.00000E+00  0.00000E+00
EN     0     0     0      0  0.00000E+00  0.00000E+00  0.00000E+00  0.00000E+00  0.00000E+00  0.00000E+00
