CM --- NEC2 Input File created or edited by xnec2c 3.5 ---
CM Big Wheel horizontally polarized omni antenna for 2m
CE --- End Comments ---
GA     1    21   6.65000E-01  0.00000E+00  7.00000E+01  3.00000E-03  1.90989E+00  0.00000E+00  0.00000E+00
GM     0     0   9.00000E+01  0.00000E+00  0.00000E+00  0.00000E+00  0.00000E+00  0.00000E+00  0.00000E+00
GW     2    17   0.00000E+00  0.00000E+00  1.00000E-02  6.65000E-01  0.00000E+00  0.00000E+00  3.00000E-03
GM     0     0   0.00000E+00  0.00000E+00  7.00000E+01  0.00000E+00  0.00000E+00  0.00000E+00  0.00000E+00
GW     3    17   0.00000E+00  0.00000E+00 -1.00000E-02  6.65000E-01  0.00000E+00  0.00000E+00  3.00000E-03
GR     0     4   0.00000E+00  0.00000E+00  0.00000E+00  0.00000E+00  0.00000E+00  0.00000E+00  0.00000E+00
GW     4     1   0.00000E+00  0.00000E+00 -1.00000E-02  0.00000E+00  0.00000E+00  1.00000E-02  3.00000E-03
GE     0     0   0.00000E+00  0.00000E+00  0.00000E+00  0.00000E+00  0.00000E+00  0.00000E+00  0.00000E+00
EX     0     4     1      0  1.00000E+00  0.00000E+00  0.00000E+00  0.00000E+00  0.00000E+00  0.00000E+00
FR     0    21     0     0  1.44000E+02  2.00000E-01  1.48000E+02  0.00000E+00  0.00000E+00  0.00000E+00
NH     0     0     0      0  0.00000E+00  0.00000E+00  0.00000E+00  0.00000E+00  0.00000E+00  0.00000E+00
NE     0    15     1     15 -1.40000E+00  0.00000E+00 -1.40000E+00  2.00000E-01  0.00000E+00  2.00000E-01
RP     0    19    37   1000  0.00000E+00  0.00000E+00  1.00000E+01  1.00000E+01  0.00000E+00  0.00000E+00
EN     0     0     0      0  0.00000E+00  0.00000E+00  0.00000E+00  0.00000E+00  0.00000E+00  0.00000E+00
