CM --- NEC2 Input File created or edited by xnec2c 3.5 ---
CM 2m Extended (Double Zeppelin) Yagi
CE --- End Comments ---
GW     1    61   1.39500E+00  0.00000E+00  0.00000E+00 -1.39500E+00  0.00000E+00  0.00000E+00  7.50000E-03
GW     2    67   1.52500E+00 -2.60000E-01  0.00000E+00 -1.52500E+00 -2.60000E-01  0.00000E+00  7.50000E-03
GW     3    19   4.20000E-01  2.30000E-01  0.00000E+00 -4.20000E-01  2.30000E-01  0.00000E+00  7.50000E-03
GE     0     0   0.00000E+00  0.00000E+00  0.00000E+00  0.00000E+00  0.00000E+00  0.00000E+00  0.00000E+00
EX     0     1    31      0  1.00000E+00  0.00000E+00  0.00000E+00  0.00000E+00  0.00000E+00  0.00000E+00
FR     0    21     0      0  1.44000E+02  2.00000E-01  1.48000E+02  0.00000E+00  0.00000E+00  0.00000E+00
RP     0    73    37      0  0.00000E+00  0.00000E+00  2.50000E+00  1.00000E+01  0.00000E+00  0.00000E+00
EN     0     0     0      0  0.00000E+00  0.00000E+00  0.00000E+00  0.00000E+00  0.00000E+00  0.00000E+00
