CM --- NEC2 Input File created or edited by xnec2c 3.5 ---
CM X-polarized extended Yagi - RHCP
CM See http://www.5b4az.org/pages/antenna_designs.html
CE --- End Comments ---
GW     1    73  1.51370E+00  0.00000E+00  0.00000E+00 -1.51370E+00  0.00000E+00  0.00000E+00  7.50000E-03
GW     2    61  1.26560E+00  4.51100E-01  0.00000E+00 -1.26560E+00  4.51100E-01  0.00000E+00  7.50000E-03
GW     3    21  4.38600E-01  8.60500E-01  0.00000E+00 -4.38600E-01  8.60500E-01  0.00000E+00  7.50000E-03
GM     3     1  0.00000E+00 -9.00000E+01  0.00000E+00  0.00000E+00  5.10000E-01  0.00000E+00  1.00000E+00
GW     8     1  2.00000E-02  7.06100E-01  0.00000E+00 -2.00000E-02  7.06100E-01  0.00000E+00  1.50000E-02
GE     0     0   0.00000E+00  0.00000E+00  0.00000E+00  0.00000E+00  0.00000E+00  0.00000E+00  0.00000E+00
EX     0     8     1      0  1.00000E+00  0.00000E+00  0.00000E+00  0.00000E+00  0.00000E+00  0.00000E+00
TL     8     1     2     31  4.50000E+02  0.00000E+00  0.00000E+00  0.00000E+00  0.00000E+00  0.00000E+00
TL     8     1     5     31  4.50000E+02  0.00000E+00  0.00000E+00  0.00000E+00  0.00000E+00  0.00000E+00
FR     0    31     0      0  1.42000E+02  2.00000E-01  1.48000E+02  0.00000E+00  0.00000E+00  0.00000E+00
RP     0    73    73      0  0.00000E+00  0.00000E+00  2.50000E+00  5.00000E+00  0.00000E+00  0.00000E+00
EN     0     0     0      0  0.00000E+00  0.00000E+00  0.00000E+00  0.00000E+00  0.00000E+00  0.00000E+00
