CM --- NEC2 Input File created or edited by xnec2c 3.5 ---
CM EME antenna for 2m, with extended double Zeppelin driven element
CM and reflector. Director is traditional Yagi sized in length.
CM Feeding is done with a balanced line harness, not shown here.
CE --- End Comments ---
GW     1    55   1.40000E+00  0.00000E+00  0.00000E+00 -1.40000E+00  0.00000E+00  0.00000E+00  7.50000E-03
GW     2    61   1.52500E+00 -2.60000E-01  0.00000E+00 -1.52500E+00 -2.60000E-01  0.00000E+00  7.50000E-03
GW     3    17   4.20000E-01  2.50000E-01  0.00000E+00 -4.20000E-01  2.50000E-01  0.00000E+00  7.50000E-03
GM     0     0   0.00000E+00  0.00000E+00  0.00000E+00 -2.05000E+00  0.00000E+00 -2.40000E+00  0.00000E+00
GM     3     3   0.00000E+00  0.00000E+00  0.00000E+00  0.00000E+00  0.00000E+00  1.60000E+00  0.00000E+00
GM    12     1   0.00000E+00  0.00000E+00  0.00000E+00  4.10000E+00  0.00000E+00  0.00000E+00  0.00000E+00
GE     0     0   0.00000E+00  0.00000E+00  0.00000E+00  0.00000E+00  0.00000E+00  0.00000E+00  0.00000E+00
EX     0     1    28      0  1.00000E+00  0.00000E+00  0.00000E+00  0.00000E+00  0.00000E+00  0.00000E+00
EX     0     4    28      0  1.00000E+00  0.00000E+00  0.00000E+00  0.00000E+00  0.00000E+00  0.00000E+00
EX     0     7    28      0  1.00000E+00  0.00000E+00  0.00000E+00  0.00000E+00  0.00000E+00  0.00000E+00
EX     0    10    28      0  1.00000E+00  0.00000E+00  0.00000E+00  0.00000E+00  0.00000E+00  0.00000E+00
EX     0    13    28      0  1.00000E+00  0.00000E+00  0.00000E+00  0.00000E+00  0.00000E+00  0.00000E+00
EX     0    16    28      0  1.00000E+00  0.00000E+00  0.00000E+00  0.00000E+00  0.00000E+00  0.00000E+00
EX     0    19    28      0  1.00000E+00  0.00000E+00  0.00000E+00  0.00000E+00  0.00000E+00  0.00000E+00
EX     0    22    28      0  1.00000E+00  0.00000E+00  0.00000E+00  0.00000E+00  0.00000E+00  0.00000E+00
RP     0    73   109      0  0.00000E+00  0.00000E+00  2.50000E+00  2.50000E+00  0.00000E+00  0.00000E+00
FR     0    11     0      0  1.44000E+02  2.00000E-01  1.46000E+02  0.00000E+00  0.00000E+00  0.00000E+00
EN     0     0     0      0  0.00000E+00  0.00000E+00  0.00000E+00  0.00000E+00  0.00000E+00  0.00000E+00
