CM --- NEC2 Input File created or edited by xnec2c 3.5 ---
CM 2m Extended (Double Zeppelin) Yagi
CM See http://www.5b4az.org/pages/antenna_designs.html
CE --- End Comments ---
GW     1    73  1.51370E+00  0.00000E+00  0.00000E+00 -1.51370E+00  0.00000E+00  0.00000E+00  7.50000E-03
GW     2    61   1.26560E+00  4.51100E-01  0.00000E+00 -1.26560E+00  4.51100E-01  0.00000E+00  7.50000E-03
GW     3    21   4.38600E-01  8.60500E-01  0.00000E+00 -4.38600E-01  8.60500E-01  0.00000E+00  7.50000E-03
GE     0     0   0.00000E+00  0.00000E+00  0.00000E+00  0.00000E+00  0.00000E+00  0.00000E+00  0.00000E+00
EX     0     2    31      0  1.00000E+00  0.00000E+00  0.00000E+00  0.00000E+00  0.00000E+00  0.00000E+00
RP     0    73    73      0  0.00000E+00  0.00000E+00  2.50000E+00  5.00000E+00  0.00000E+00  0.00000E+00
FR     0    51     0      0  1.40000E+02  2.00000E-01  1.50000E+02  0.00000E+00  0.00000E+00  0.00000E+00
EN     0     0     0      0  0.00000E+00  0.00000E+00  0.00000E+00  0.00000E+00  0.00000E+00  0.00000E+00
