CM --- NEC2 Input File created or edited by xnec2c 3.5 ---
CM X-polarized extended Yagi - RHCP
CE --- End Comments ---
GW     1    61   1.33000E+00  0.00000E+00  0.00000E+00 -1.33000E+00  0.00000E+00  0.00000E+00  7.50000E-03
GW     2    75   1.52000E+00 -4.00000E-01  0.00000E+00 -1.52000E+00 -4.00000E-01  0.00000E+00  7.50000E-03
GW     3    21  4.30000E-01  3.20000E-01  0.00000E+00 -4.30000E-01  3.20000E-01  0.00000E+00  7.50000E-03
GM     3     1   0.00000E+00 -9.00000E+01  0.00000E+00  0.00000E+00  5.10000E-01  0.00000E+00  1.00000E+00
GE     0     0   0.00000E+00  0.00000E+00  0.00000E+00  0.00000E+00  0.00000E+00  0.00000E+00  0.00000E+00
EX     0     1    31      0  1.00000E+00  0.00000E+00  0.00000E+00  0.00000E+00  0.00000E+00  0.00000E+00
EX     0     4    31      0  1.00000E+00  0.00000E+00  0.00000E+00  0.00000E+00  0.00000E+00  0.00000E+00
FR     0    21     0      0  1.44000E+02  2.00000E-01  1.48000E+02  0.00000E+00  0.00000E+00  0.00000E+00
RP     0    73    37      0  0.00000E+00  0.00000E+00  2.50000E+00  1.00000E+01  0.00000E+00  0.00000E+00
EN     0     0     0      0  0.00000E+00  0.00000E+00  0.00000E+00  0.00000E+00  0.00000E+00  0.00000E+00
