CM --- NEC2 Input File created or edited by xnec2c 3.5 ---
CM A stack of two halo antennas for 2m. Note that the
CM circumference of the halos is .625l, not 0.5l
CE --- End Comments ---
GA     1    31  1.95000E-01  2.00000E+00  3.58000E+02  3.00000E-03  1.95551E+00  0.00000E+00  0.00000E+00
GM     0     0  9.00000E+01  0.00000E+00  0.00000E+00  0.00000E+00  0.00000E+00  7.00000E-01  0.00000E+00
GX     1     1  0.00000E+00  0.00000E+00  0.00000E+00  0.00000E+00  0.00000E+00  0.00000E+00  0.00000E+00
GW     3     1 -1.97000E-01 -2.00000E-02  0.00000E+00 -1.97000E-01  2.00000E-02  0.00000E+00  3.00000E-03
GE     0     0  0.00000E+00  0.00000E+00  0.00000E+00  0.00000E+00  0.00000E+00  0.00000E+00  0.00000E+00
EX     0     3     1      0  1.00000E+00  0.00000E+00  0.00000E+00  0.00000E+00  0.00000E+00  0.00000E+00
TL     1    16     3      1  6.00000E+02  0.00000E+00  0.00000E+00  0.00000E+00  0.00000E+00  0.00000E+00
TL     2    16     3      1  6.00000E+02  0.00000E+00  0.00000E+00  0.00000E+00  0.00000E+00  0.00000E+00
FR     0    21     0      0  1.40000E+02  5.00000E-01  1.50000E+02  0.00000E+00  0.00000E+00  0.00000E+00
RP     0    37    37      0  0.00000E+00  0.00000E+00  5.00000E+00  1.00000E+01  0.00000E+00  0.00000E+00
EN     0     0     0      0  0.00000E+00  0.00000E+00  0.00000E+00  0.00000E+00  0.00000E+00  0.00000E+00
