CM --- NEC2 Input File created or edited by xnec2c 3.5 ---
CM A Lindnblad omnidirectional RHCP antenna for 2m
CE --- End Comments ---
GW     1    31   2.53000E-01  0.00000E+00  4.88000E-01  2.53000E-01  0.00000E+00 -4.88000E-01  6.00000E-03
GM     0     0  -6.00000E+01  0.00000E+00  0.00000E+00  0.00000E+00  0.00000E+00  0.00000E+00  0.00000E+00
GR     1     4   0.00000E+00  0.00000E+00  0.00000E+00  0.00000E+00  0.00000E+00  0.00000E+00  0.00000E+00
GW     5     1   0.00000E+00  0.00000E+00 -1.00000E-02  0.00000E+00  0.00000E+00  1.00000E-02  1.50000E-02
GM     0     0  -4.50000E+01  0.00000E+00  0.00000E+00  0.00000E+00  0.00000E+00  0.00000E+00  5.00000E+00
GE     0     0   0.00000E+00  0.00000E+00  0.00000E+00  0.00000E+00  0.00000E+00  0.00000E+00  0.00000E+00
EX     0     5     1      0  1.00000E+00  0.00000E+00  0.00000E+00  0.00000E+00  0.00000E+00  0.00000E+00
TL     5     1     1     16 -3.00000E+02  0.00000E+00  0.00000E+00  0.00000E+00  0.00000E+00  0.00000E+00
TL     5     1     2     16 -3.00000E+02  0.00000E+00  0.00000E+00  0.00000E+00  0.00000E+00  0.00000E+00
TL     5     1     3     16 -3.00000E+02  0.00000E+00  0.00000E+00  0.00000E+00  0.00000E+00  0.00000E+00
TL     5     1     4     16 -3.00000E+02  0.00000E+00  0.00000E+00  0.00000E+00  0.00000E+00  0.00000E+00
FR     0    81     0      0  1.20000E+02  5.00000E-01  1.60000E+02  0.00000E+00  0.00000E+00  0.00000E+00
RP     0    19    37   1000  0.00000E+00  0.00000E+00  1.00000E+01  1.00000E+01  0.00000E+00  0.00000E+00
EN     0     0     0      0  0.00000E+00  0.00000E+00  0.00000E+00  0.00000E+00  0.00000E+00  0.00000E+00
