CM --- NEC2 Input File created or edited by xnec2c 3.5 ---
CM A square halo antenna for 2m. Circumference is 0.625l
CE --- End Comments ---
GW     1     7 -1.62000E-01  1.62000E-01  0.00000E+00  1.62000E-01  1.62000E-01  0.00000E+00  6.00000E-03
GM     1     2  0.00000E+00  0.00000E+00  9.00000E+01  0.00000E+00  0.00000E+00  0.00000E+00  0.00000E+00
GW     4     4  1.62000E-01  1.62000E-01  0.00000E+00  1.62000E-01  1.00000E-02  0.00000E+00  6.00000E-03
GW     5     4  1.62000E-01 -1.62000E-01  0.00000E+00  1.62000E-01 -1.00000E-02  0.00000E+00  6.00000E-03
GE     0     0  0.00000E+00  0.00000E+00  0.00000E+00  0.00000E+00  0.00000E+00  0.00000E+00  0.00000E+00
EX     0     2     4      0  1.00000E+00  0.00000E+00  0.00000E+00  0.00000E+00  0.00000E+00  0.00000E+00
FR     0    21     0      0  1.40000E+02  5.00000E-01  1.50000E+02  0.00000E+00  0.00000E+00  0.00000E+00
RP     0    37    37      0  0.00000E+00  0.00000E+00  5.00000E+00  1.00000E+01  0.00000E+00  0.00000E+00
EN     0     0     0      0  0.00000E+00  0.00000E+00  0.00000E+00  0.00000E+00  0.00000E+00  0.00000E+00
