CM --- NEC2 Input File created or edited by xnec2c 3.5 ---
CM Vertically-stacked omni-directional RH-polarized anrtenna for 2m
CE --- End Comments ---
GW     1    20   0.00000E+00  0.00000E+00  2.00000E-02  6.92700E-01  2.51900E-01  2.61800E-01  3.00000E-03
GW     2    20   0.00000E+00  0.00000E+00 -2.00000E-02  6.92700E-01 -2.51900E-01 -2.61800E-01  3.00000E-03
GW     3    20   6.92700E-01  2.51900E-01  2.61800E-01  6.92700E-01 -2.51900E-01 -2.61800E-01  3.00000E-03
GR     3     4   0.00000E+00  0.00000E+00  0.00000E+00  0.00000E+00  0.00000E+00  0.00000E+00  0.00000E+00
GW    13     1   0.00000E+00  0.00000E+00 -2.00000E-02  0.00000E+00  0.00000E+00  2.00000E-02  3.00000E-03
GM     0     0   0.00000E+00  0.00000E+00  0.00000E+00  0.00000E+00  0.00000E+00 -7.50000E-01  0.00000E+00
GM    13     1   0.00000E+00  0.00000E+00  0.00000E+00  0.00000E+00  0.00000E+00  1.50000E+00  0.00000E+00
GW    27     1   0.00000E+00  2.00000E-02  0.00000E+00  0.00000E+00 -2.00000E-02  0.00000E+00  1.00000E-02
GE     0     0   0.00000E+00  0.00000E+00  0.00000E+00  0.00000E+00  0.00000E+00  0.00000E+00  0.00000E+00
EX     0    27     1      0  1.00000E+00  0.00000E+00  0.00000E+00  0.00000E+00  0.00000E+00  0.00000E+00
TL    13     1    27      1  5.00000E+01  0.00000E+00  0.00000E+00  0.00000E+00  0.00000E+00  0.00000E+00
TL    27     1    26      1  5.00000E+01  0.00000E+00  0.00000E+00  0.00000E+00  0.00000E+00  0.00000E+00
FR     0    21     0      0  1.40000E+02  5.00000E-01  1.50000E+02  0.00000E+00  0.00000E+00  0.00000E+00
RP     0    37    37  1000  0.00000E+00  0.00000E+00  5.00000E+00  1.00000E+01  0.00000E+00  0.00000E+00
EN     0     0     0      0  0.00000E+00  0.00000E+00  0.00000E+00  0.00000E+00  0.00000E+00  0.00000E+00
