CM --- NEC2 Input File created or edited by xnec2c 3.5 ---
CM A Lindnblad omnidirectional RHCP antenna for 2m
CE --- End Comments ---
GW     1    31   2.65000E-01  4.51000E-01  2.62000E-01  2.65000E-01 -4.51000E-01 -2.62000E-01  6.00000E-03
GW     2    18   2.65000E-01  4.51000E-01  2.62000E-01  0.00000E+00  0.00000E+00  1.00000E-02  6.00000E-03
GW     3    18   2.65000E-01 -4.51000E-01 -2.62000E-01  0.00000E+00  0.00000E+00 -1.00000E-02  6.00000E-03
GR     0     4   0.00000E+00  0.00000E+00  0.00000E+00  0.00000E+00  0.00000E+00  0.00000E+00  0.00000E+00
GW     4     1   0.00000E+00  0.00000E+00 -1.00000E-02  0.00000E+00  0.00000E+00  1.00000E-02  1.50000E-02
GE     0     0   0.00000E+00  0.00000E+00  0.00000E+00  0.00000E+00  0.00000E+00  0.00000E+00  0.00000E+00
EX     0     4     1      0  1.00000E+00  0.00000E+00  0.00000E+00  0.00000E+00  0.00000E+00  0.00000E+00
FR     0    61     0      0  1.20000E+02  1.00000E+00  1.80000E+02  0.00000E+00  0.00000E+00  0.00000E+00
RP     0    19    37   1000  0.00000E+00  0.00000E+00  1.00000E+01  1.00000E+01  0.00000E+00  0.00000E+00
EN     0     0     0      0  0.00000E+00  0.00000E+00  0.00000E+00  0.00000E+00  0.00000E+00  0.00000E+00
