CM --- NEC2 Input File created or edited by xnec2c 3.5 ---
CM  Yagi for 145 MHz
CE --- End Comments ---
GW     1    25   0.00000E+00  5.09000E-01  0.00000E+00  0.00000E+00 -5.09000E-01  0.00000E+00  5.00000E-03
GW     2    25   4.00000E-01  4.84000E-01  0.00000E+00  4.00000E-01 -4.84000E-01  0.00000E+00  5.00000E-03
GW     3    22   7.00000E-01  4.59000E-01  0.00000E+00  7.00000E-01 -4.59000E-01  0.00000E+00  5.00000E-03
GW     4    22   1.10000E+00  4.50000E-01  0.00000E+00  1.10000E+00 -4.50000E-01  0.00000E+00  5.00000E-03
GW     5    22   1.50000E+00  4.40000E-01  0.00000E+00  1.50000E+00 -4.40000E-01  0.00000E+00  5.00000E-03
GW     6    21   1.90000E+00  4.30000E-01  0.00000E+00  1.90000E+00 -4.30000E-01  0.00000E+00  5.00000E-03
GM     0     0   0.00000E+00  0.00000E+00  0.00000E+00 -1.00000E+00  0.00000E+00  0.00000E+00  0.00000E+00
GE     0     0   0.00000E+00  0.00000E+00  0.00000E+00  0.00000E+00  0.00000E+00  0.00000E+00  0.00000E+00
FR     0    21     0      0  1.40000E+02  5.00000E-01  1.50000E+02  0.00000E+00  0.00000E+00  0.00000E+00
EX     0     2    13      0  1.00000E+00  0.00000E+00  0.00000E+00  0.00000E+00  0.00000E+00  0.00000E+00
LD     5     0     0      0  3.70000E+07  0.00000E+00  0.00000E+00  0.00000E+00  0.00000E+00  0.00000E+00
NH     0     0     0      0  0.00000E+00  0.00000E+00  0.00000E+00  0.00000E+00  0.00000E+00  0.00000E+00
NE     0    20    15      1 -1.40000E+00 -1.40000E+00  5.00000E-02  2.00000E-01  2.00000E-01  0.00000E+00
RP     0    37    73   1000  0.00000E+00  0.00000E+00  5.00000E+00  5.00000E+00  0.00000E+00  0.00000E+00
EN     0     0     0      0  0.00000E+00  0.00000E+00  0.00000E+00  0.00000E+00  0.00000E+00  0.00000E+00
