CM --- NEC2 Input File created or edited by xnec2c 3.5 ---
CM 30-80m Inverted L antenna
CE --- End Comments ---
GW     1    31   0.00000E+00  0.00000E+00  0.00000E+00  0.00000E+00  0.00000E+00  1.68000E+01  1.50000E-03
GW     2    18   0.00000E+00  0.00000E+00  1.68000E+01  9.00000E+00  0.00000E+00  1.68000E+01  1.50000E-03
GE     1     0   0.00000E+00  0.00000E+00  0.00000E+00  0.00000E+00  0.00000E+00  0.00000E+00  0.00000E+00
EX     0     1     1      0  1.00000E+00  0.00000E+00  0.00000E+00  0.00000E+00  0.00000E+00  0.00000E+00
FR     0    46     0      0  3.00000E+00  2.00000E-01  1.20000E+01  0.00000E+00  0.00000E+00  0.00000E+00
GN     1     0     0      0  0.00000E+00  0.00000E+00  0.00000E+00  0.00000E+00  0.00000E+00  0.00000E+00
RP     0    19    37   1000  0.00000E+00  0.00000E+00  5.00000E+00  1.00000E+01  0.00000E+00  0.00000E+00
EN     0     0     0      0  0.00000E+00  0.00000E+00  0.00000E+00  0.00000E+00  0.00000E+00  0.00000E+00
