CM --- NEC2 Input File created or edited by xnec2c 3.5 ---
CM An Inverted-L antenna for 40-80m bands
CE --- End Comments ---
GW     1    20   0.00000E+00  0.00000E+00  0.00000E+00  0.00000E+00  0.00000E+00  1.20000E+01  1.25000E-03
GW     2    26   0.00000E+00  0.00000E+00  1.20000E+01  1.60000E+01  0.00000E+00  1.20000E+01  1.25000E-03
GE     1     0   0.00000E+00  0.00000E+00  0.00000E+00  0.00000E+00  0.00000E+00  0.00000E+00  0.00000E+00
EX     0     1     1      0  1.00000E+00  0.00000E+00  0.00000E+00  0.00000E+00  0.00000E+00  0.00000E+00
FR     0   101     0      0  3.00000E+00  5.00000E-02  8.00000E+00  0.00000E+00  0.00000E+00  0.00000E+00
RP     0    19    37   1000  0.00000E+00  0.00000E+00  5.00000E+00  1.00000E+01  0.00000E+00  0.00000E+00
GN     0    16     0      0  1.20000E+01  1.00000E-02  1.00000E+01  5.00000E-03  0.00000E+00  0.00000E+00
LD     0     1     1      1  1.00000E-01  1.50000E-05  6.00000E-11  0.00000E+00  0.00000E+00  0.00000E+00
EN     0     0     0      0  0.00000E+00  0.00000E+00  0.00000E+00  0.00000E+00  0.00000E+00  0.00000E+00
