CM --- NEC2 Input File created or edited by xnec2c 3.5 ---
CM Moxon antenna for 40m
CE --- End Comments ---
GW     1    19  2.56000E+00  0.00000E+00  2.00000E+00  2.56000E+00  0.00000E+00  1.74000E+01  1.50000E-03
GW     2     3  2.56000E+00  0.00000E+00  2.00000E+00  1.80000E-01  0.00000E+00  2.00000E+00  1.50000E-03
GW     3     3  2.56000E+00  0.00000E+00  1.74000E+01  1.80000E-01  0.00000E+00  1.74000E+01  1.50000E-03
GW     4     1  1.80000E-01  0.00000E+00  9.50000E+00  1.80000E-01  0.00000E+00  9.90000E+00  1.50000E-02
GR    10     3  0.00000E+00  0.00000E+00  0.00000E+00  0.00000E+00  0.00000E+00  0.00000E+00  0.00000E+00
GE     0     0  0.00000E+00  0.00000E+00  0.00000E+00  0.00000E+00  0.00000E+00  0.00000E+00  0.00000E+00
EX     0     4     1      0  1.00000E+00  0.00000E+00  0.00000E+00  0.00000E+00  0.00000E+00  0.00000E+00
TL     1    10     4      1  5.00000E+01  6.20000E+00  0.00000E+00  0.00000E+00  0.00000E+00  0.00000E+00
TL    11    10    14      1  5.00000E+01  6.20000E+00  0.00000E+00  0.00000E+00  1.00000E+04  0.00000E+00
TL    21    10    24      1  5.00000E+01  6.20000E+00  0.00000E+00  0.00000E+00  1.00000E+04  0.00000E+00
FR     0    21     0      0  6.80000E+00  2.00000E-02  7.20000E+00  0.00000E+00  0.00000E+00  0.00000E+00
NH     0     0     0      0  0.00000E+00  0.00000E+00  0.00000E+00  0.00000E+00  0.00000E+00  0.00000E+00
NE     0    10     1     10 -1.35000E+00  0.00000E+00 -1.35000E+00  3.00000E-01  0.00000E+00  3.00000E-01
RP     0    19    37     10  0.00000E+00  0.00000E+00  5.00000E+00  1.00000E+01  0.00000E+00  0.00000E+00
GN     2     0     0      0  1.20000E+01  2.00000E-03  0.00000E+00  0.00000E+00  0.00000E+00  0.00000E+00
EN     0     0     0      0  0.00000E+00  0.00000E+00  0.00000E+00  0.00000E+00  0.00000E+00  0.00000E+00
