CM --- NEC2 Input File created or edited by xnec2c 3.5 ---
CM Skeleton bi-pyramid antenna for 14-52 MHz
CE --- End Comments ---
GW     1    18  1.34400E+00  0.00000E+00  1.62400E+00  0.00000E+00  0.00000E+00  1.12000E-01  3.00000E-03
GW     2    18  1.34400E+00  0.00000E+00  1.62400E+00  0.00000E+00  0.00000E+00  3.13600E+00  3.00000E-03
GW     3    12  1.34400E+00  0.00000E+00  1.62400E+00  0.00000E+00  0.00000E+00  1.62400E+00  7.50000E-03
GW     4    17  1.34400E+00  0.00000E+00  1.62400E+00  0.00000E+00  1.34400E+00  1.62400E+00  3.00000E-03
GR     0     4  0.00000E+00  0.00000E+00  0.00000E+00  0.00000E+00  0.00000E+00  0.00000E+00  0.00000E+00
GW     5    13  0.00000E+00  0.00000E+00  1.62400E+00  0.00000E+00  0.00000E+00  1.12000E-01  1.50000E-02
GW     6    13  0.00000E+00  0.00000E+00  1.62400E+00  0.00000E+00  0.00000E+00  3.13600E+00  1.50000E-02
GW     7     1  0.00000E+00  0.00000E+00  1.12000E-01  0.00000E+00  0.00000E+00  0.00000E+00  1.50000E-02
GE     1     0  0.00000E+00  0.00000E+00  0.00000E+00  0.00000E+00  0.00000E+00  0.00000E+00  0.00000E+00
EX     0     7     1      0  1.00000E+00  0.00000E+00  0.00000E+00  0.00000E+00  0.00000E+00  0.00000E+00
FR     0    41     0      0  1.40000E+01  1.00000E+00  5.40000E+01  0.00000E+00  0.00000E+00  0.00000E+00
NH     0     0     0      0  0.00000E+00  0.00000E+00  0.00000E+00  0.00000E+00  0.00000E+00  0.00000E+00
NE     0    10     1     10 -4.50000E+00  0.00000E+00  5.00000E-01  1.00000E+00  0.00000E+00  1.00000E+00
RP     4    19    37      0  0.00000E+00  0.00000E+00  5.00000E+00  1.00000E+01  0.00000E+00  0.00000E+00
GN     1     0     0      0  0.00000E+00  0.00000E+00  0.00000E+00  0.00000E+00  0.00000E+00  0.00000E+00
EN     0     0     0      0  0.00000E+00  0.00000E+00  0.00000E+00  0.00000E+00  0.00000E+00  0.00000E+00
