CM --- NEC2 Input File created or edited by xnec2c 3.5 ---
CM Skeleton inverted cone antenna for 14-52 MHz
CE --- End Comments ---
GW     1    31   0.00000E+00  0.00000E+00  1.12000E-01  1.06000E+00  0.00000E+00  3.80000E+00  3.00000E-03
GR     0     6   0.00000E+00  0.00000E+00  0.00000E+00  0.00000E+00  0.00000E+00  0.00000E+00  0.00000E+00
GW     4     1   0.00000E+00  0.00000E+00  1.12000E-01  0.00000E+00  0.00000E+00  0.00000E+00  1.25000E-02
GE     1     0   0.00000E+00  0.00000E+00  0.00000E+00  0.00000E+00  0.00000E+00  0.00000E+00  0.00000E+00
EX     0     4     1      0  1.00000E+00  0.00000E+00  0.00000E+00  0.00000E+00  0.00000E+00  0.00000E+00
FR     0    39     0      0  1.40000E+01  1.00000E+00  5.20000E+01  0.00000E+00  0.00000E+00  0.00000E+00
RP     0    19    37      0  0.00000E+00  0.00000E+00  5.00000E+00  1.00000E+01  0.00000E+00  0.00000E+00
GN     1     0     0      0  0.00000E+00  0.00000E+00  0.00000E+00  0.00000E+00  0.00000E+00  0.00000E+00
EN     0     0     0      0  0.00000E+00  0.00000E+00  0.00000E+00  0.00000E+00  0.00000E+00  0.00000E+00
