CM Multiband Asymmetric Dipole for all bands from 7 to 50 MHz
CM Input impedance is generally 200 Ohm so a 4:1 balun is needed
CM See http://www.5b4az.org/pages/antenna_designs.html
CE This antenna combines principles from the Windom and G5RV
GW     1   145  0.00000E+00  0.00000E+00  1.28613E+01 -1.69595E+01  0.00000E+00  1.28613E+01  1.50000E-03
GW     2   110  0.00000E+00  0.00000E+00  1.28613E+01  1.28730E+01  0.00000E+00  1.28613E+01  1.50000E-03
GW     3     1  0.00000E+00  0.00000E+00  1.00000E+00 -1.20000E-01  0.00000E+00  1.00000E+00  1.50000E-03
GE     1     0   0.00000E+00  0.00000E+00  0.00000E+00  0.00000E+00  0.00000E+00  0.00000E+00  0.00000E+00
FR     0   221     0      0  7.00000E+00  2.00000E-01  5.10000E+01  0.00000E+00  0.00000E+00  0.00000E+00
EX     0     3     1      0  1.00000E+00  0.00000E+00  0.00000E+00  0.00000E+00  0.00000E+00  0.00000E+00
RP     0    19    37      0  0.00000E+00  0.00000E+00  5.00000E+00  1.00000E+01  0.00000E+00  0.00000E+00
TL     1     1     3      1  4.50000E+02  0.00000E+00  0.00000E+00  0.00000E+00  0.00000E+00  0.00000E+00
ZO   200     0     0      0  0.00000E+00  0.00000E+00  0.00000E+00  0.00000E+00  0.00000E+00  0.00000E+00
GN     2     0     0      0  1.20000E+01  1.00000E-02  0.00000E+00  0.00000E+00  0.00000E+00  0.00000E+00
EN     0     0     0      0  0.00000E+00  0.00000E+00  0.00000E+00  0.00000E+00  0.00000E+00  0.00000E+00
