CM --- NEC2 Input File created or edited by xnec2c 3.5 ---
CM Big Square horizontally polarized omni antenna for 2m
CE --- End Comments ---
GW     1    16  0.00000E+00  0.00000E+00  5.00000E-02  1.75800E+00  0.00000E+00  0.00000E+00  6.00000E-03
GM     0     0  0.00000E+00  0.00000E+00  8.00000E+01  0.00000E+00  0.00000E+00  0.00000E+00  0.00000E+00
GW     2    16  0.00000E+00  0.00000E+00 -5.00000E-02  1.75800E+00  0.00000E+00  0.00000E+00  6.00000E-03
GW     3    20  3.05300E-01  1.73800E+00  0.00000E+00  1.75800E+00  0.00000E+00  0.00000E+00  6.00000E-03
GR     0     4  0.00000E+00  0.00000E+00  0.00000E+00  0.00000E+00  0.00000E+00  0.00000E+00  0.00000E+00
GW     4     1  0.00000E+00  0.00000E+00 -5.00000E-02  0.00000E+00  0.00000E+00  5.00000E-02  6.00000E-03
GM     4     1  0.00000E+00  0.00000E+00  0.00000E+00  0.00000E+00  0.00000E+00  3.00000E+00  0.00000E+00
GW     9     1  5.00000E-02  0.00000E+00  1.50000E+00 -5.00000E-02  0.00000E+00  1.50000E+00  6.00000E-03
GM     0     0  0.00000E+00  0.00000E+00  0.00000E+00  0.00000E+00  0.00000E+00  3.00000E+00  0.00000E+00
GE     1     0  0.00000E+00  0.00000E+00  0.00000E+00  0.00000E+00  0.00000E+00  0.00000E+00  0.00000E+00
EX     0     9     1      0  1.00000E+00  0.00000E+00  0.00000E+00  0.00000E+00  0.00000E+00  0.00000E+00
TL     9     1     4      1  4.00000E+01  0.00000E+00  0.00000E+00  0.00000E+00  0.00000E+00  0.00000E+00
TL     9     1     8      1  4.00000E+01  0.00000E+00  0.00000E+00  0.00000E+00  0.00000E+00  0.00000E+00
FR     0    21     0      0  4.50000E+01  5.00000E-01  5.50000E+01  0.00000E+00  0.00000E+00  0.00000E+00
RP     0    19    37   1000  0.00000E+00  0.00000E+00  5.00000E+00  1.00000E+01  0.00000E+00  0.00000E+00
GN     0     0     0      0  1.20000E+01  1.00000E-02  0.00000E+00  0.00000E+00  0.00000E+00  0.00000E+00
EN     0     0     0      0  0.00000E+00  0.00000E+00  0.00000E+00  0.00000E+00  0.00000E+00  0.00000E+00
