CM --- NEC2 Input File created or edited by xnec2c 3.5 ---
CM An Omnidirectional Horizontally Polarized antenna for 6m
CE --- End Comments ---
GW     1    15  -5.00000E-01 -4.90000E-01  0.00000E+00  5.00000E-01 -4.90000E-01  0.00000E+00  1.50000E-03
GW     1    15  -5.00000E-01 -4.90000E-01  0.00000E+00 -5.00000E-01  4.90000E-01  0.00000E+00  1.50000E-03
GW     1    15   5.00000E-01 -4.90000E-01  0.00000E+00  5.00000E-01  4.90000E-01  0.00000E+00  1.50000E-03
GW     1     7   2.00000E-02  4.90000E-01  0.00000E+00  5.00000E-01  4.90000E-01  0.00000E+00  1.50000E-03
GW     1     7  -2.00000E-02  4.90000E-01  0.00000E+00 -5.00000E-01  4.90000E-01  0.00000E+00  1.50000E-03
GW     2     1  -3.00000E-02 -4.90000E-01 -2.26000E+00  3.00000E-02 -4.90000E-01 -2.26000E+00  5.00000E-03
GM     0     0  0.00000E+00  0.00000E+00  0.00000E+00  0.00000E+00  0.00000E+00  1.00000E+00  1.00000E+00
GE     0     0   0.00000E+00  0.00000E+00  0.00000E+00  0.00000E+00  0.00000E+00  0.00000E+00  0.00000E+00
EX     0     2     1      0  1.00000E+00  0.00000E+00  0.00000E+00  0.00000E+00  0.00000E+00  0.00000E+00
TL     1     8     2      1  4.50000E+02  0.00000E+00  0.00000E+00  0.00000E+00  0.00000E+00  0.00000E+00
FR     0    51     0      0  4.50000E+01  2.00000E-01  5.50000E+01  0.00000E+00  0.00000E+00  0.00000E+00
RP     0    19    37   1000  0.00000E+00  0.00000E+00  1.00000E+01  1.00000E+01  0.00000E+00  0.00000E+00
EN     0     0     0      0  0.00000E+00  0.00000E+00  0.00000E+00  0.00000E+00  0.00000E+00  0.00000E+00
