CM --- NEC2 Input File created or edited by xnec2c 3.5 ---
CM  432 MHz stacked Extended Double Zeppelin with two
CM  reflectors and directors mounted on driven elements
CE --- End Comments ---
GW     1    21  0.00000E+00 -2.31000E-01  3.42000E-01  0.00000E+00  2.31000E-01  3.42000E-01  7.50000E-03
GW     2     7  0.00000E+00 -3.85000E-01  3.42000E-01  0.00000E+00 -2.31000E-01  3.42000E-01  7.50000E-03
GW     3     7  0.00000E+00  3.85000E-01  3.42000E-01  0.00000E+00  2.31000E-01  3.42000E-01  7.50000E-03
GW     4     6 -1.80000E-01 -2.31000E-01  3.42000E-01  0.00000E+00 -2.31000E-01  3.42000E-01  5.00000E-03
GW     5     6 -1.80000E-01  2.31000E-01  3.42000E-01  0.00000E+00  2.31000E-01  3.42000E-01  5.00000E-03
GW     6     6  0.00000E+00 -2.31000E-01  3.42000E-01  1.00000E-01 -2.31000E-01  3.42000E-01  5.00000E-03
GW     7     6  0.00000E+00  2.31000E-01  3.42000E-01  1.00000E-01  2.31000E-01  3.42000E-01  5.00000E-03
GW     8     7 -1.80000E-01 -3.87000E-01  3.42000E-01 -1.80000E-01 -2.31000E-01  3.42000E-01  3.00000E-03
GW     9     7 -1.80000E-01 -2.31000E-01  3.42000E-01 -1.80000E-01 -7.50000E-02  3.42000E-01  3.00000E-03
GW    10     7 -1.80000E-01  3.87000E-01  3.42000E-01 -1.80000E-01  2.31000E-01  3.42000E-01  3.00000E-03
GW    11     7 -1.80000E-01  2.31000E-01  3.42000E-01 -1.80000E-01  7.50000E-02  3.42000E-01  3.00000E-03
GW    12     7  1.00000E-01 -3.77000E-01  3.42000E-01  1.00000E-01 -2.31000E-01  3.42000E-01  3.00000E-03
GW    13     7  1.00000E-01 -2.31000E-01  3.42000E-01  1.00000E-01 -8.50000E-02  3.42000E-01  3.00000E-03
GW    14     7  1.00000E-01  3.77000E-01  3.42000E-01  1.00000E-01  2.31000E-01  3.42000E-01  3.00000E-03
GW    15     7  1.00000E-01  2.31000E-01  3.42000E-01  1.00000E-01  8.50000E-02  3.42000E-01  3.00000E-03
GX    15     1  0.00000E+00  0.00000E+00  0.00000E+00  0.00000E+00  0.00000E+00  0.00000E+00  0.00000E+00
GE     0     0  0.00000E+00  0.00000E+00  0.00000E+00  0.00000E+00  0.00000E+00  0.00000E+00  0.00000E+00
EK     0     0     0      0  0.00000E+00  0.00000E+00  0.00000E+00  0.00000E+00  0.00000E+00  0.00000E+00
EX     0     1    11      0  1.00000E+00  0.00000E+00  0.00000E+00  0.00000E+00  0.00000E+00  0.00000E+00
EX     0    16    11      0  1.00000E+00  0.00000E+00  0.00000E+00  0.00000E+00  0.00000E+00  0.00000E+00
FR     0    31     0      0  4.20000E+02  1.00000E+00  0.00000E+00  0.00000E+00  0.00000E+00  0.00000E+00
RP     0    37    73   1000  0.00000E+00  0.00000E+00  5.00000E+00  5.00000E+00  0.00000E+00  0.00000E+00
EN     0     0     0      0  0.00000E+00  0.00000E+00  0.00000E+00  0.00000E+00  0.00000E+00  0.00000E+00
