CM --- NEC2 Input File created or edited by xnec2c 3.5 ---
CM Balloon Vertical for 80m. 1/2 wave fed with 1/4 wave feeder.
CE --- End Comments ---
GW     1    27  0.00000E+00  0.00000E+00  2.00000E+01  0.00000E+00  0.00000E+00  6.05000E+01  1.50000E-03
GW     2     1 -2.00000E-01  0.00000E+00  5.00000E-01  2.00000E-01  0.00000E+00  5.00000E-01  1.50000E-02
GE     1     0  0.00000E+00  0.00000E+00  0.00000E+00  0.00000E+00  0.00000E+00  0.00000E+00  0.00000E+00
EX     0     2     1      0  1.00000E+00  0.00000E+00  0.00000E+00  0.00000E+00  0.00000E+00  0.00000E+00
FR     0    21     0      0  3.00000E+00  5.00000E-02  4.00000E+00  0.00000E+00  0.00000E+00  0.00000E+00
RP     0    19    37      0  0.00000E+00  0.00000E+00  5.00000E+00  1.00000E+01  0.00000E+00  0.00000E+00
TL     1     1     2      1  4.50000E+02  0.00000E+00  0.00000E+00  0.00000E+00  0.00000E+00  0.00000E+00
GN     2     0     0      0  1.20000E+01  5.00000E-03  0.00000E+00  0.00000E+00  0.00000E+00  0.00000E+00
EN     0     0     0      0  0.00000E+00  0.00000E+00  0.00000E+00  0.00000E+00  0.00000E+00  0.00000E+00
