CM Jet plane with trailing wire antenna
CE End Comments
GW     1     1  7.69703E+00 -3.05237E-01  1.51819E+00  7.69703E+00  7.00000E-06  1.51819E+00  1.00000E-02
GW     2     1  1.28670E+01  1.66028E-01  2.99715E+00  1.28695E+01  0.00000E+00  2.99701E+00  1.00000E-02
GW     3     1  1.69070E+01  0.00000E+00  2.77578E+00  1.28670E+01  1.66030E-01  2.99715E+00  1.00000E-02
GW     4     1  1.50463E+01  2.06341E-01  2.77500E+00  1.69070E+01  0.00000E+00  2.77578E+00  1.00000E-02
GW     5     1  1.69070E+01  0.00000E+00  2.77578E+00  1.28722E+01  4.47423E-01  2.41615E+00  1.00000E-02
GW     6     1  1.69070E+01  0.00000E+00  2.77578E+00  1.28473E+01  1.39100E-01  2.09967E+00  1.00000E-02
GW     7     1  1.28473E+01  1.39100E-01  2.09967E+00  1.28473E+01 -1.39100E-01  2.09967E+00  1.00000E-02
GW     8     1  1.12287E+01  2.33350E-01  3.08692E+00  1.12287E+01 -2.33350E-01  3.08692E+00  1.00000E-02
GW     9     1  1.12345E+01  1.91124E-01  1.91759E+00  1.12345E+01 -1.91124E-01  1.91759E+00  1.00000E-02
GW    10     1  9.52535E+00  3.03356E-01  3.18025E+00  9.52535E+00 -3.03356E-01  3.18025E+00  1.00000E-02
GW    11     1  7.69648E+00  3.78515E-01  3.28047E+00  7.69648E+00 -3.78515E-01  3.28047E+00  1.00000E-02
GW    12     1  9.52806E+00 -2.46171E-01  1.72492E+00  9.52806E+00  2.46171E-01  1.72492E+00  1.00000E-02
GW    13     1  6.30906E+00 -3.50010E-01  1.36149E+00  6.30906E+00  3.50010E-01  1.36149E+00  1.00000E-02
GW    14     1  6.30472E+00  3.78515E-01  3.47929E+00  6.30472E+00 -3.78515E-01  3.47929E+00  1.00000E-02
GW    15     1  5.42155E+00 -3.78515E-01  3.60546E+00  5.42155E+00  3.78515E-01  3.60546E+00  1.00000E-02
GW    16     2  4.16367E+00 -3.78510E-01  3.78515E+00  4.16367E+00  3.78510E-01  3.78515E+00  1.00000E-02
GW    17     1  5.42539E+00  3.78515E-01  1.26172E+00  5.42539E+00 -3.78515E-01  1.26172E+00  1.00000E-02
GW    18     1  4.16367E+00 -3.78515E-01  1.26172E+00  4.16367E+00  3.78515E-01  1.26172E+00  1.00000E-02
GW    19     1  2.77578E+00 -3.15430E-01  3.65898E+00  2.77578E+00  3.15430E-01  3.65898E+00  1.00000E-02
GW    20     1  3.40664E+00  3.78515E-01  1.26172E+00  3.40664E+00 -3.78515E-01  1.26172E+00  1.00000E-02
GW    21     1  2.08183E+00  2.52344E-01  1.38789E+00  2.08183E+00 -2.52344E-01  1.38789E+00  1.00000E-02
GW    22     1  7.57031E-01  1.26172E-01  1.51406E+00  7.57031E-01 -1.26172E-01  1.51406E+00  1.00000E-02
GW    23     1  1.76641E+00 -2.52344E-01  3.02812E+00  1.76641E+00  2.52344E-01  3.02812E+00  1.00000E-02
GW    24     1  7.57031E-01  1.89258E-01  2.77578E+00  7.57031E-01 -1.89258E-01  2.77578E+00  1.00000E-02
GW    25     1  0.00000E+00  1.26172E-01  2.01875E+00  0.00000E+00 -1.26172E-01  2.01875E+00  1.00000E-02
GW    26     1  1.69070E+01  0.00000E+00  2.77578E+00  1.28722E+01 -4.47423E-01  2.41615E+00  1.00000E-02
GW    27     1  1.69070E+01  0.00000E+00  2.77578E+00  1.28473E+01 -1.39100E-01  2.09967E+00  1.00000E-02
GW    28     1  1.28722E+01 -4.47423E-01  2.41615E+00  1.28795E+01 -4.46618E-01  2.77409E+00  1.00000E-02
GW    29     1  1.12180E+01 -6.30859E-01  2.26871E+00  1.12180E+01 -6.30859E-01  2.77339E+00  1.00000E-02
GW    30     1  9.52599E+00 -7.17719E-01  2.78449E+00  9.52619E+00 -7.17708E-01  2.14953E+00  1.00000E-02
GW    31     1  7.69637E+00 -8.11639E-01  2.79649E+00  7.69912E+00 -8.11498E-01  2.02082E+00  1.00000E-02
GW    32     1  6.30227E+00 -8.83203E-01  2.80563E+00  6.30227E+00 -8.83203E-01  1.92243E+00  1.00000E-02
GW    33     1  5.42575E+00 -8.83203E-01  1.90898E+00  5.42580E+00 -8.44875E-01  2.80628E+00  1.00000E-02
GW    34     1  4.15950E+00 -8.83203E-01  1.88957E+00  4.16009E+00 -8.12425E-01  2.80627E+00  1.00000E-02
GW    35     1  3.21862E+00 -8.83203E-01  2.57677E+00  3.21778E+00 -8.83203E-01  1.87512E+00  1.00000E-02
GW    36     1  6.30228E-01 -6.30859E-01  2.29931E+00  7.57031E-01 -1.89258E-01  2.77578E+00  1.00000E-02
GW    37     1  2.01673E+00 -8.83203E-01  2.48757E+00  6.30228E-01 -6.30859E-01  2.29931E+00  1.00000E-02
GW    38     1  2.01673E+00 -8.83203E-01  1.85671E+00  2.01673E+00 -8.83203E-01  2.48757E+00  1.00000E-02
GW    39     1  0.00000E+00 -1.26172E-01  2.01875E+00  7.57031E-01 -1.89258E-01  2.77578E+00  1.00000E-02
GW    40     1  4.15950E+00 -8.83203E-01  1.88957E+00  5.42575E+00 -8.83203E-01  1.90898E+00  1.00000E-02
GW    41     1  5.42539E+00 -3.78515E-01  1.26172E+00  4.16367E+00 -3.78515E-01  1.26172E+00  1.00000E-02
GW    42     1  4.16367E+00 -3.78515E-01  1.26172E+00  4.15950E+00 -8.83203E-01  1.88957E+00  1.00000E-02
GW    43     1  3.40664E+00 -3.78515E-01  1.26172E+00  3.21778E+00 -8.83203E-01  1.87512E+00  1.00000E-02
GW    44     1  2.01673E+00 -8.83203E-01  1.85671E+00  2.08183E+00 -2.52344E-01  1.38789E+00  1.00000E-02
GW    45     1  7.57031E-01 -1.26172E-01  1.51406E+00  6.30228E-01 -6.30859E-01  1.92080E+00  1.00000E-02
GW    46     1  7.57031E-01 -1.26172E-01  1.51406E+00  0.00000E+00 -1.26172E-01  2.01875E+00  1.00000E-02
GW    47     1  3.40664E+00 -3.78515E-01  1.26172E+00  2.08183E+00 -2.52344E-01  1.38789E+00  1.00000E-02
GW    48     1  3.40664E+00 -3.78515E-01  1.26172E+00  4.16367E+00 -3.78515E-01  1.26172E+00  1.00000E-02
GW    49     1  2.08183E+00 -2.52344E-01  1.38789E+00  7.57031E-01 -1.26172E-01  1.51406E+00  1.00000E-02
GW    50     1  6.30228E-01 -6.30859E-01  2.29931E+00  6.30228E-01 -6.30859E-01  1.92080E+00  1.00000E-02
GW    51     1  6.30228E-01 -6.30859E-01  1.92080E+00  0.00000E+00 -1.26172E-01  2.01875E+00  1.00000E-02
GW    52     1  6.30228E-01 -6.30859E-01  1.92080E+00  2.01673E+00 -8.83203E-01  1.85671E+00  1.00000E-02
GW    53     1  3.21778E+00 -8.83203E-01  1.87512E+00  2.01673E+00 -8.83203E-01  1.85671E+00  1.00000E-02
GW    54     1  3.21778E+00 -8.83203E-01  1.87512E+00  4.15950E+00 -8.83203E-01  1.88957E+00  1.00000E-02
GW    55     1  0.00000E+00 -1.26172E-01  2.01875E+00  6.30228E-01 -6.30859E-01  2.29931E+00  1.00000E-02
GW    56     1  7.69703E+00 -3.05237E-01  1.51819E+00  9.52806E+00 -2.46171E-01  1.72492E+00  1.00000E-02
GW    57     1  7.69912E+00 -8.11498E-01  2.02082E+00  7.69703E+00 -3.05237E-01  1.51819E+00  1.00000E-02
GW    58     1  6.30906E+00 -3.50010E-01  1.36149E+00  6.30227E+00 -8.83203E-01  1.92243E+00  1.00000E-02
GW    59     1  5.42575E+00 -8.83203E-01  1.90898E+00  5.42539E+00 -3.78515E-01  1.26172E+00  1.00000E-02
GW    60     1  5.42539E+00 -3.78515E-01  1.26172E+00  6.30906E+00 -3.50010E-01  1.36149E+00  1.00000E-02
GW    61     1  7.69703E+00 -3.05237E-01  1.51819E+00  6.30906E+00 -3.50010E-01  1.36149E+00  1.00000E-02
GW    62     1  1.12345E+01 -1.91124E-01  1.91759E+00  1.28473E+01 -1.39100E-01  2.09967E+00  1.00000E-02
GW    63     1  1.12345E+01 -1.91124E-01  1.91759E+00  1.12180E+01 -6.30859E-01  2.26871E+00  1.00000E-02
GW    64     1  9.52619E+00 -7.17708E-01  2.14953E+00  9.52806E+00 -2.46171E-01  1.72492E+00  1.00000E-02
GW    65     1  6.30227E+00 -8.83203E-01  1.92243E+00  7.69912E+00 -8.11498E-01  2.02082E+00  1.00000E-02
GW    66     1  1.12345E+01 -1.91124E-01  1.91759E+00  9.52806E+00 -2.46171E-01  1.72492E+00  1.00000E-02
GW    67     1  6.30227E+00 -8.83203E-01  1.92243E+00  5.42575E+00 -8.83203E-01  1.90898E+00  1.00000E-02
GW    68     1  9.52619E+00 -7.17708E-01  2.14953E+00  1.12180E+01 -6.30859E-01  2.26871E+00  1.00000E-02
GW    69     1  7.69912E+00 -8.11498E-01  2.02082E+00  9.52619E+00 -7.17708E-01  2.14953E+00  1.00000E-02
GW    70     1  1.28473E+01 -1.39100E-01  2.09967E+00  1.28722E+01 -4.47423E-01  2.41615E+00  1.00000E-02
GW    71     1  1.28722E+01 -4.47423E-01  2.41615E+00  1.12180E+01 -6.30859E-01  2.26871E+00  1.00000E-02
GW    72     1  1.49548E+01  0.00000E+00  4.14230E+00  1.50144E+01  0.00000E+00  5.26811E+00  1.00000E-02
GW    73     1  1.65740E+01  0.00000E+00  4.15788E+00  1.62762E+01  0.00000E+00  5.39428E+00  1.00000E-02
GW    74     1  1.39420E+01  0.00000E+00  4.13256E+00  1.50144E+01  0.00000E+00  5.26811E+00  1.00000E-02
GW    75     1  5.41486E+00 -3.08670E+00  2.80627E+00  4.16009E+00 -8.12425E-01  2.80627E+00  1.00000E-02
GW    76     1  5.42580E+00 -8.44875E-01  2.80628E+00  4.16009E+00 -8.12425E-01  2.80627E+00  1.00000E-02
GW    77     1  5.42155E+00 -3.78515E-01  3.60546E+00  4.16367E+00 -3.78515E-01  3.78515E+00  1.00000E-02
GW    78     1  4.16009E+00 -8.12425E-01  2.80627E+00  4.16367E+00 -3.78515E-01  3.78515E+00  1.00000E-02
GW    79     1  1.76641E+00 -2.52344E-01  3.02812E+00  2.77578E+00 -3.15430E-01  3.65898E+00  1.00000E-02
GW    80     1  2.01673E+00 -8.83203E-01  2.48757E+00  1.76641E+00 -2.52344E-01  3.02812E+00  1.00000E-02
GW    81     1  7.57031E-01 -1.89258E-01  2.77578E+00  1.76641E+00 -2.52344E-01  3.02812E+00  1.00000E-02
GW    82     1  3.21862E+00 -8.83203E-01  2.57677E+00  4.16009E+00 -8.12425E-01  2.80627E+00  1.00000E-02
GW    83     1  2.01673E+00 -8.83203E-01  2.48757E+00  3.21862E+00 -8.83203E-01  2.57677E+00  1.00000E-02
GW    84     1  4.16367E+00 -3.78515E-01  3.78515E+00  2.77578E+00 -3.15430E-01  3.65898E+00  1.00000E-02
GW    85     1  1.48883E+01  0.00000E+00  2.88640E+00  1.49548E+01  0.00000E+00  4.14230E+00  1.00000E-02
GW    86     1  1.65740E+01  0.00000E+00  4.15788E+00  1.69070E+01  0.00000E+00  2.77578E+00  1.00000E-02
GW    87     1  1.28695E+01  0.00000E+00  2.99701E+00  1.39420E+01  0.00000E+00  4.13256E+00  1.00000E-02
GW    88     1  7.69648E+00 -3.78515E-01  3.28047E+00  6.30472E+00 -3.78515E-01  3.47929E+00  1.00000E-02
GW    89     1  6.30227E+00 -8.83203E-01  2.80563E+00  6.30472E+00 -3.78515E-01  3.47929E+00  1.00000E-02
GW    90     1  5.42580E+00 -8.44875E-01  2.80628E+00  5.42155E+00 -3.78515E-01  3.60546E+00  1.00000E-02
GW    91     1  1.48883E+01  0.00000E+00  2.88640E+00  1.69070E+01  0.00000E+00  2.77578E+00  1.00000E-02
GW    92     1  1.50463E+01 -2.06341E-01  2.77500E+00  1.69070E+01  0.00000E+00  2.77578E+00  1.00000E-02
GW    93     1  1.69070E+01  0.00000E+00  2.77578E+00  1.28670E+01 -1.66028E-01  2.99715E+00  1.00000E-02
GW    94     1  1.28695E+01  0.00000E+00  2.99701E+00  1.48883E+01  0.00000E+00  2.88640E+00  1.00000E-02
GW    95     1  1.28795E+01 -4.46618E-01  2.77409E+00  1.28670E+01 -1.66028E-01  2.99715E+00  1.00000E-02
GW    96     1  1.12180E+01 -6.30859E-01  2.77339E+00  1.12287E+01 -2.33354E-01  3.08692E+00  1.00000E-02
GW    97     1  9.52535E+00 -3.03356E-01  3.18025E+00  9.52599E+00 -7.17719E-01  2.78449E+00  1.00000E-02
GW    98     1  7.69637E+00 -8.11639E-01  2.79649E+00  7.69648E+00 -3.78515E-01  3.28047E+00  1.00000E-02
GW    99     1  1.12180E+01 -6.30859E-01  2.77339E+00  9.52599E+00 -7.17719E-01  2.78449E+00  1.00000E-02
GW   100     1  9.06729E+00 -4.67431E+00  2.80627E+00  9.05992E+00 -7.19190E+00  2.80627E+00  1.00000E-02
GW   101     1  9.53716E+00 -7.19454E+00  2.80627E+00  9.06729E+00 -4.67431E+00  2.80627E+00  1.00000E-02
GW   102     1  7.67558E+00 -7.18425E+00  2.80627E+00  6.28484E+00 -4.66354E+00  2.80627E+00  1.00000E-02
GW   103     1  7.68384E+00 -4.65068E+00  2.80238E+00  7.67558E+00 -7.18425E+00  2.80627E+00  1.00000E-02
GW   104     1  9.05718E+00 -8.13039E+00  2.80627E+00  9.71165E+00 -8.13039E+00  2.80627E+00  1.00000E-02
GW   105     1  9.05992E+00 -7.19190E+00  2.80627E+00  9.53716E+00 -7.19454E+00  2.80627E+00  1.00000E-02
GW   106     1  9.05992E+00 -7.19190E+00  2.80627E+00  9.05718E+00 -8.13039E+00  2.80627E+00  1.00000E-02
GW   107     1  8.19758E+00 -8.13039E+00  2.80627E+00  7.67558E+00 -7.18425E+00  2.80627E+00  1.00000E-02
GW   108     1  7.67558E+00 -7.18425E+00  2.80627E+00  9.05992E+00 -7.19190E+00  2.80627E+00  1.00000E-02
GW   109     1  8.19758E+00 -8.13039E+00  2.80627E+00  9.05718E+00 -8.13039E+00  2.80627E+00  1.00000E-02
GW   110     1  9.71165E+00 -8.13039E+00  2.80627E+00  9.53716E+00 -7.19454E+00  2.80627E+00  1.00000E-02
GW   111     1  7.68384E+00 -4.65068E+00  2.80238E+00  6.28484E+00 -4.66354E+00  2.80627E+00  1.00000E-02
GW   112     1  7.68891E+00 -3.09598E+00  2.79999E+00  6.32782E+00 -3.08619E+00  2.80627E+00  1.00000E-02
GW   113     1  6.30227E+00 -8.83203E-01  2.80563E+00  7.69637E+00 -8.11639E-01  2.79649E+00  1.00000E-02
GW   114     1  6.30227E+00 -8.83203E-01  2.80563E+00  6.32782E+00 -3.08619E+00  2.80627E+00  1.00000E-02
GW   115     1  5.42580E+00 -8.44875E-01  2.80628E+00  5.41486E+00 -3.08670E+00  2.80627E+00  1.00000E-02
GW   116     1  6.32782E+00 -3.08619E+00  2.80627E+00  5.41486E+00 -3.08670E+00  2.80627E+00  1.00000E-02
GW   117     1  5.41486E+00 -3.08670E+00  2.80627E+00  6.32782E+00 -3.08619E+00  2.80627E+00  1.00000E-02
GW   118     1  6.28484E+00 -4.66354E+00  2.80627E+00  5.41486E+00 -3.08670E+00  2.80627E+00  1.00000E-02
GW   119     1  6.32782E+00 -3.08619E+00  2.80627E+00  6.28484E+00 -4.66354E+00  2.80627E+00  1.00000E-02
GW   120     1  6.30227E+00 -8.83203E-01  2.80563E+00  5.42580E+00 -8.44875E-01  2.80628E+00  1.00000E-02
GW   121     1  7.69637E+00 -8.11639E-01  2.79649E+00  7.68891E+00 -3.09598E+00  2.79999E+00  1.00000E-02
GW   122     1  8.77094E+00 -3.08481E+00  2.80627E+00  8.34240E+00 -7.86238E-01  2.80627E+00  1.00000E-02
GW   123     1  7.68384E+00 -4.65068E+00  2.80238E+00  7.68891E+00 -3.09598E+00  2.79999E+00  1.00000E-02
GW   124     1  9.06729E+00 -4.67431E+00  2.80627E+00  8.77094E+00 -3.08481E+00  2.80627E+00  1.00000E-02
GW   125     1  7.68891E+00 -3.09598E+00  2.79999E+00  8.77094E+00 -3.08481E+00  2.80627E+00  1.00000E-02
GW   126     1  7.68384E+00 -4.65068E+00  2.80238E+00  9.06729E+00 -4.67431E+00  2.80627E+00  1.00000E-02
GW   127     1  8.34240E+00 -7.86238E-01  2.80627E+00  9.52599E+00 -7.17719E-01  2.78449E+00  1.00000E-02
GW   128     1  8.34240E+00 -7.86238E-01  2.80627E+00  7.69637E+00 -8.11639E-01  2.79649E+00  1.00000E-02
GW   129     1  1.40537E+01 -3.16406E-01  2.77458E+00  1.28795E+01 -4.46618E-01  2.77409E+00  1.00000E-02
GW   130     1  1.28795E+01 -4.46618E-01  2.77409E+00  1.36790E+01 -1.64590E+00  2.77409E+00  1.00000E-02
GW   131     1  1.12180E+01 -6.30859E-01  2.77339E+00  1.28795E+01 -4.46618E-01  2.77409E+00  1.00000E-02
GW   132     1  1.53508E+01 -1.65128E+00  2.77454E+00  1.56553E+01 -3.09623E+00  2.77409E+00  1.00000E-02
GW   133     1  1.46459E+01 -3.09623E+00  2.77409E+00  1.43611E+01 -1.64810E+00  2.77428E+00  1.00000E-02
GW   134     1  1.36790E+01 -1.64590E+00  2.77409E+00  1.46459E+01 -3.09623E+00  2.77409E+00  1.00000E-02
GW   135     1  1.46459E+01 -3.09623E+00  2.77409E+00  1.56553E+01 -3.09623E+00  2.77409E+00  1.00000E-02
GW   136     1  1.53508E+01 -1.65128E+00  2.77454E+00  1.43611E+01 -1.64810E+00  2.77428E+00  1.00000E-02
GW   137     1  1.40537E+01 -3.16406E-01  2.77458E+00  1.50463E+01 -2.06341E-01  2.77500E+00  1.00000E-02
GW   138     1  1.43611E+01 -1.64810E+00  2.77428E+00  1.36790E+01 -1.64590E+00  2.77409E+00  1.00000E-02
GW   139     1  1.43611E+01 -1.64810E+00  2.77428E+00  1.40537E+01 -3.16406E-01  2.77458E+00  1.00000E-02
GW   140     1  1.53508E+01 -1.65128E+00  2.77454E+00  1.50463E+01 -2.06341E-01  2.77500E+00  1.00000E-02
GW   141     1  1.12287E+01 -2.33354E-01  3.08692E+00  9.52535E+00 -3.03356E-01  3.18025E+00  1.00000E-02
GW   142     1  9.52535E+00 -3.03356E-01  3.18025E+00  7.69648E+00 -3.78515E-01  3.28047E+00  1.00000E-02
GW   143     1  1.12287E+01 -2.33354E-01  3.08692E+00  1.28670E+01 -1.66028E-01  2.99715E+00  1.00000E-02
GW   144     1  1.28670E+01 -1.66028E-01  2.99715E+00  1.28695E+01  0.00000E+00  2.99701E+00  1.00000E-02
GW   145     1  1.49548E+01  0.00000E+00  4.14230E+00  1.65740E+01  0.00000E+00  4.15788E+00  1.00000E-02
GW   146     1  6.30472E+00 -3.78515E-01  3.47929E+00  5.42155E+00 -3.78515E-01  3.60546E+00  1.00000E-02
GW   147     1  1.49548E+01  0.00000E+00  4.14230E+00  1.39420E+01  0.00000E+00  4.13256E+00  1.00000E-02
GW   148     1  1.50144E+01  0.00000E+00  5.26811E+00  1.62762E+01  0.00000E+00  5.39428E+00  1.00000E-02
GW   149     1  1.12180E+01  6.30859E-01  2.26871E+00  1.12180E+01  6.30859E-01  2.77339E+00  1.00000E-02
GW   150     1  9.52599E+00  7.17719E-01  2.78449E+00  9.52619E+00  7.17708E-01  2.14953E+00  1.00000E-02
GW   151     1  1.28722E+01  4.47423E-01  2.41615E+00  1.28795E+01  4.46618E-01  2.77409E+00  1.00000E-02
GW   152     1  2.01673E+00  8.83203E-01  2.48757E+00  6.30228E-01  6.30859E-01  2.29931E+00  1.00000E-02
GW   153     1  3.21862E+00  8.83203E-01  2.57677E+00  3.21778E+00  8.83203E-01  1.87512E+00  1.00000E-02
GW   154     1  2.01673E+00  8.83203E-01  1.85671E+00  2.01673E+00  8.83203E-01  2.48757E+00  1.00000E-02
GW   155     1  6.30227E+00  8.83203E-01  2.80563E+00  6.30227E+00  8.83203E-01  1.92243E+00  1.00000E-02
GW   156     1  4.15950E+00  8.83203E-01  1.88957E+00  4.16009E+00  8.12425E-01  2.80627E+00  1.00000E-02
GW   157     1  5.42575E+00  8.83203E-01  1.90898E+00  5.42580E+00  8.44875E-01  2.80628E+00  1.00000E-02
GW   158     1  0.00000E+00  1.26172E-01  2.01875E+00  7.57031E-01  1.89258E-01  2.77578E+00  1.00000E-02
GW   159     1  6.30228E-01  6.30859E-01  2.29931E+00  7.57031E-01  1.89258E-01  2.77578E+00  1.00000E-02
GW   160     1  7.69637E+00  8.11639E-01  2.79649E+00  7.69912E+00  8.11498E-01  2.02082E+00  1.00000E-02
GW   161     1  4.15950E+00  8.83203E-01  1.88957E+00  5.42575E+00  8.83203E-01  1.90898E+00  1.00000E-02
GW   162     1  5.42539E+00  3.78515E-01  1.26172E+00  4.16367E+00  3.78515E-01  1.26172E+00  1.00000E-02
GW   163     1  4.16367E+00  3.78515E-01  1.26172E+00  4.15950E+00  8.83203E-01  1.88957E+00  1.00000E-02
GW   164     1  7.57031E-01  1.26172E-01  1.51406E+00  0.00000E+00  1.26172E-01  2.01875E+00  1.00000E-02
GW   165     1  3.40664E+00  3.78515E-01  1.26172E+00  3.21778E+00  8.83203E-01  1.87512E+00  1.00000E-02
GW   166     1  2.01673E+00  8.83203E-01  1.85671E+00  2.08183E+00  2.52344E-01  1.38789E+00  1.00000E-02
GW   167     1  7.57031E-01  1.26172E-01  1.51406E+00  6.30228E-01  6.30859E-01  1.92080E+00  1.00000E-02
GW   168     1  3.40664E+00  3.78515E-01  1.26172E+00  2.08183E+00  2.52344E-01  1.38789E+00  1.00000E-02
GW   169     1  3.40664E+00  3.78515E-01  1.26172E+00  4.16367E+00  3.78515E-01  1.26172E+00  1.00000E-02
GW   170     1  2.08183E+00  2.52344E-01  1.38789E+00  7.57031E-01  1.26172E-01  1.51406E+00  1.00000E-02
GW   171     1  6.30228E-01  6.30859E-01  2.29931E+00  6.30228E-01  6.30859E-01  1.92080E+00  1.00000E-02
GW   172     1  6.30228E-01  6.30859E-01  1.92080E+00  0.00000E+00  1.26172E-01  2.01875E+00  1.00000E-02
GW   173     1  6.30228E-01  6.30859E-01  1.92080E+00  2.01673E+00  8.83203E-01  1.85671E+00  1.00000E-02
GW   174     1  3.21778E+00  8.83203E-01  1.87512E+00  2.01673E+00  8.83203E-01  1.85671E+00  1.00000E-02
GW   175     1  3.21778E+00  8.83203E-01  1.87512E+00  4.15950E+00  8.83203E-01  1.88957E+00  1.00000E-02
GW   176     1  0.00000E+00  1.26172E-01  2.01875E+00  6.30228E-01  6.30859E-01  2.29931E+00  1.00000E-02
GW   177     1  7.69912E+00  8.11498E-01  2.02082E+00  7.69703E+00  3.05237E-01  1.51819E+00  1.00000E-02
GW   178     1  6.30906E+00  3.50010E-01  1.36149E+00  6.30227E+00  8.83203E-01  1.92243E+00  1.00000E-02
GW   179     1  5.42575E+00  8.83203E-01  1.90898E+00  5.42539E+00  3.78515E-01  1.26172E+00  1.00000E-02
GW   180     1  7.69703E+00  3.05237E-01  1.51819E+00  9.52806E+00  2.46171E-01  1.72492E+00  1.00000E-02
GW   181     1  5.42539E+00  3.78515E-01  1.26172E+00  6.30906E+00  3.50010E-01  1.36149E+00  1.00000E-02
GW   182     1  7.69703E+00  3.05237E-01  1.51819E+00  6.30906E+00  3.50010E-01  1.36149E+00  1.00000E-02
GW   183     1  7.69703E+00  3.05237E-01  1.51819E+00  7.69703E+00  7.00000E-06  1.51819E+00  1.00000E-02
GW   184     1  1.12345E+01  1.91124E-01  1.91759E+00  1.12180E+01  6.30859E-01  2.26871E+00  1.00000E-02
GW   185     1  1.12345E+01  1.91124E-01  1.91759E+00  1.28473E+01  1.39100E-01  2.09967E+00  1.00000E-02
GW   186     1  9.52619E+00  7.17708E-01  2.14953E+00  9.52806E+00  2.46171E-01  1.72492E+00  1.00000E-02
GW   187     1  6.30227E+00  8.83203E-01  1.92243E+00  7.69912E+00  8.11498E-01  2.02082E+00  1.00000E-02
GW   188     1  1.12345E+01  1.91124E-01  1.91759E+00  9.52806E+00  2.46171E-01  1.72492E+00  1.00000E-02
GW   189     1  6.30227E+00  8.83203E-01  1.92243E+00  5.42575E+00  8.83203E-01  1.90898E+00  1.00000E-02
GW   190     1  9.52619E+00  7.17708E-01  2.14953E+00  1.12180E+01  6.30859E-01  2.26871E+00  1.00000E-02
GW   191     1  7.69912E+00  8.11498E-01  2.02082E+00  9.52619E+00  7.17708E-01  2.14953E+00  1.00000E-02
GW   192     1  1.28473E+01  1.39100E-01  2.09967E+00  1.28722E+01  4.47423E-01  2.41615E+00  1.00000E-02
GW   193     1  1.28722E+01  4.47423E-01  2.41615E+00  1.12180E+01  6.30859E-01  2.26871E+00  1.00000E-02
GW   194     1  5.42155E+00  3.78515E-01  3.60546E+00  4.16367E+00  3.78515E-01  3.78515E+00  1.00000E-02
GW   195     1  5.42580E+00  8.44875E-01  2.80628E+00  4.16009E+00  8.12425E-01  2.80627E+00  1.00000E-02
GW   196     1  5.41486E+00  3.08670E+00  2.80627E+00  4.16009E+00  8.12425E-01  2.80627E+00  1.00000E-02
GW   197     1  4.16009E+00  8.12425E-01  2.80627E+00  4.16367E+00  3.78515E-01  3.78515E+00  1.00000E-02
GW   198     1  1.76641E+00  2.52344E-01  3.02812E+00  2.77578E+00  3.15430E-01  3.65898E+00  1.00000E-02
GW   199     1  7.57031E-01  1.89258E-01  2.77578E+00  1.76641E+00  2.52344E-01  3.02812E+00  1.00000E-02
GW   200     1  2.01673E+00  8.83203E-01  2.48757E+00  1.76641E+00  2.52344E-01  3.02812E+00  1.00000E-02
GW   201     1  3.21862E+00  8.83203E-01  2.57677E+00  4.16009E+00  8.12425E-01  2.80627E+00  1.00000E-02
GW   202     1  2.01673E+00  8.83203E-01  2.48757E+00  3.21862E+00  8.83203E-01  2.57677E+00  1.00000E-02
GW   203     1  4.16367E+00  3.78515E-01  3.78515E+00  2.77578E+00  3.15430E-01  3.65898E+00  1.00000E-02
GW   204     1  6.30227E+00  8.83203E-01  2.80563E+00  6.30472E+00  3.78515E-01  3.47929E+00  1.00000E-02
GW   205     1  5.42580E+00  8.44875E-01  2.80628E+00  5.42155E+00  3.78515E-01  3.60546E+00  1.00000E-02
GW   206     1  7.69648E+00  3.78515E-01  3.28047E+00  6.30472E+00  3.78515E-01  3.47929E+00  1.00000E-02
GW   207     1  1.28795E+01  4.46618E-01  2.77409E+00  1.28670E+01  1.66028E-01  2.99715E+00  1.00000E-02
GW   208     1  9.52535E+00  3.03356E-01  3.18025E+00  9.52599E+00  7.17719E-01  2.78449E+00  1.00000E-02
GW   209     1  1.12180E+01  6.30859E-01  2.77339E+00  1.12287E+01  2.33354E-01  3.08692E+00  1.00000E-02
GW   210     1  7.69637E+00  8.11639E-01  2.79649E+00  7.69648E+00  3.78515E-01  3.28047E+00  1.00000E-02
GW   211     1  1.12180E+01  6.30859E-01  2.77339E+00  9.52599E+00  7.17719E-01  2.78449E+00  1.00000E-02
GW   212     1  7.67607E+00  4.66893E+00  2.80627E+00  7.67558E+00  7.18425E+00  2.80627E+00  1.00000E-02
GW   213     1  7.67558E+00  7.18425E+00  2.80627E+00  6.28484E+00  4.66354E+00  2.80627E+00  1.00000E-02
GW   214     1  9.06729E+00  4.67431E+00  2.80627E+00  9.05992E+00  7.19190E+00  2.80627E+00  1.00000E-02
GW   215     1  9.53716E+00  7.19454E+00  2.80627E+00  9.06729E+00  4.67431E+00  2.80627E+00  1.00000E-02
GW   216     1  7.69180E+00  3.08542E+00  2.80627E+00  6.28996E+00  3.08621E+00  2.80627E+00  1.00000E-02
GW   217     1  6.30227E+00  8.83203E-01  2.80563E+00  7.69637E+00  8.11639E-01  2.79649E+00  1.00000E-02
GW   218     1  6.28484E+00  4.66354E+00  2.80627E+00  7.67607E+00  4.66893E+00  2.80627E+00  1.00000E-02
GW   219     1  5.42580E+00  8.44875E-01  2.80628E+00  5.41486E+00  3.08670E+00  2.80627E+00  1.00000E-02
GW   220     1  6.30227E+00  8.83203E-01  2.80563E+00  6.28996E+00  3.08621E+00  2.80627E+00  1.00000E-02
GW   221     1  6.30227E+00  8.83203E-01  2.80563E+00  5.42580E+00  8.44875E-01  2.80628E+00  1.00000E-02
GW   222     1  6.28996E+00  3.08621E+00  2.80627E+00  5.41486E+00  3.08670E+00  2.80627E+00  1.00000E-02
GW   223     1  6.28484E+00  4.66354E+00  2.80627E+00  5.41486E+00  3.08670E+00  2.80627E+00  1.00000E-02
GW   224     1  6.28996E+00  3.08621E+00  2.80627E+00  6.28484E+00  4.66354E+00  2.80627E+00  1.00000E-02
GW   225     1  7.69180E+00  3.08542E+00  2.80627E+00  7.69637E+00  8.11639E-01  2.79649E+00  1.00000E-02
GW   226     1  8.77094E+00  3.08481E+00  2.80627E+00  8.34240E+00  7.86238E-01  2.80627E+00  1.00000E-02
GW   227     1  8.34240E+00  7.86238E-01  2.80627E+00  9.52599E+00  7.17719E-01  2.78449E+00  1.00000E-02
GW   228     1  8.34240E+00  7.86238E-01  2.80627E+00  7.69637E+00  8.11639E-01  2.79649E+00  1.00000E-02
GW   229     1  7.67607E+00  4.66893E+00  2.80627E+00  9.06729E+00  4.67431E+00  2.80627E+00  1.00000E-02
GW   230     1  7.69180E+00  3.08542E+00  2.80627E+00  7.67607E+00  4.66893E+00  2.80627E+00  1.00000E-02
GW   231     1  9.06729E+00  4.67431E+00  2.80627E+00  8.77094E+00  3.08481E+00  2.80627E+00  1.00000E-02
GW   232     1  7.69180E+00  3.08542E+00  2.80627E+00  8.77094E+00  3.08481E+00  2.80627E+00  1.00000E-02
GW   233     1  9.05992E+00  7.19190E+00  2.80627E+00  9.53716E+00  7.19454E+00  2.80627E+00  1.00000E-02
GW   234     1  9.05718E+00  8.13039E+00  2.80627E+00  9.71165E+00  8.13039E+00  2.80627E+00  1.00000E-02
GW   235     1  8.19758E+00  8.13039E+00  2.80627E+00  9.05718E+00  8.13039E+00  2.80627E+00  1.00000E-02
GW   236     1  9.05992E+00  7.19190E+00  2.80627E+00  9.05718E+00  8.13039E+00  2.80627E+00  1.00000E-02
GW   237     1  8.19758E+00  8.13039E+00  2.80627E+00  7.67558E+00  7.18425E+00  2.80627E+00  1.00000E-02
GW   238     1  7.67558E+00  7.18425E+00  2.80627E+00  9.05992E+00  7.19190E+00  2.80627E+00  1.00000E-02
GW   239     1  9.71165E+00  8.13039E+00  2.80627E+00  9.53716E+00  7.19454E+00  2.80627E+00  1.00000E-02
GW   240     1  1.28795E+01  4.46618E-01  2.77409E+00  1.36790E+01  1.64590E+00  2.77409E+00  1.00000E-02
GW   241     1  1.40537E+01  3.16406E-01  2.77458E+00  1.28795E+01  4.46618E-01  2.77409E+00  1.00000E-02
GW   242     1  1.12180E+01  6.30859E-01  2.77339E+00  1.28795E+01  4.46618E-01  2.77409E+00  1.00000E-02
GW   243     1  1.36790E+01  1.64590E+00  2.77409E+00  1.46459E+01  3.09623E+00  2.77409E+00  1.00000E-02
GW   244     1  1.46459E+01  3.09623E+00  2.77409E+00  1.43611E+01  1.64810E+00  2.77428E+00  1.00000E-02
GW   245     1  1.53508E+01  1.65128E+00  2.77454E+00  1.56553E+01  3.09623E+00  2.77409E+00  1.00000E-02
GW   246     1  1.40537E+01  3.16406E-01  2.77458E+00  1.50463E+01  2.06341E-01  2.77500E+00  1.00000E-02
GW   247     1  1.53508E+01  1.65128E+00  2.77454E+00  1.43611E+01  1.64810E+00  2.77428E+00  1.00000E-02
GW   248     1  1.43611E+01  1.64810E+00  2.77428E+00  1.40537E+01  3.16406E-01  2.77458E+00  1.00000E-02
GW   249     1  1.43611E+01  1.64810E+00  2.77428E+00  1.36790E+01  1.64590E+00  2.77409E+00  1.00000E-02
GW   250     1  1.53508E+01  1.65128E+00  2.77454E+00  1.50463E+01  2.06340E-01  2.77500E+00  1.00000E-02
GW   251     1  1.46459E+01  3.09623E+00  2.77409E+00  1.56553E+01  3.09623E+00  2.77409E+00  1.00000E-02
GW   252     1  1.12287E+01  2.33354E-01  3.08692E+00  9.52535E+00  3.03356E-01  3.18025E+00  1.00000E-02
GW   253     1  9.52535E+00  3.03360E-01  3.18025E+00  7.69648E+00  3.78510E-01  3.28047E+00  1.00000E-02
GW   254     1  1.12287E+01  2.33354E-01  3.08692E+00  1.28670E+01  1.66028E-01  2.99715E+00  1.00000E-02
GW   255     1  6.30472E+00  3.78515E-01  3.47929E+00  5.42155E+00  3.78515E-01  3.60546E+00  1.00000E-02
GW   256    16  1.69070E+01  0.00000E+00  2.77578E+00  2.70000E+01  0.00000E+00  2.77578E+00  1.00000E-02
GM     0     0  0.00000E+00  0.00000E+00  0.00000E+00 -1.35000E+01  0.00000E+00 -2.00000E+00  0.00000E+00
GE     0     0  0.00000E+00  0.00000E+00  0.00000E+00  0.00000E+00  0.00000E+00  0.00000E+00  0.00000E+00
FR     0    11     0      0  5.00000E+00  5.00000E-01  1.00000E+01  0.00000E+00  0.00000E+00  0.00000E+00
EX     0   256     1      0  1.00000E+00  0.00000E+00  0.00000E+00  0.00000E+00  0.00000E+00  0.00000E+00
RP     0    19    37      0  0.00000E+00  0.00000E+00  1.00000E+01  1.00000E+01  0.00000E+00  0.00000E+00
EN     0     0     0      0  0.00000E+00  0.00000E+00  0.00000E+00  0.00000E+00  0.00000E+00  0.00000E+00
