CM --- NEC2 Input File created or edited by xnec2c 3.5 ---
CM Short vertical antenna over sea as ground (buoy)
CM Base loaded for resonance around 13.75 MHz
CE --- End Comments ---
GW     1     6  0.00000E+00  0.00000E+00  0.00000E+00  0.00000E+00  0.00000E+00  2.20000E+00  2.00000E-02
GE     1     0  0.00000E+00  0.00000E+00  0.00000E+00  0.00000E+00  0.00000E+00  0.00000E+00  0.00000E+00
FR     0    11     0      0  1.00000E+01  5.00000E-01  1.50000E+01  0.00000E+00  0.00000E+00  0.00000E+00
EX     0     1     1      0  1.00000E+01  0.00000E+00  0.00000E+00  0.00000E+00  0.00000E+00  0.00000E+00
LD     0     1     1      1  0.00000E+00  3.85000E-06  0.00000E+00  0.00000E+00  0.00000E+00  0.00000E+00
GN     2     0     0      0  8.00000E+01  4.00000E+00  0.00000E+00  0.00000E+00  0.00000E+00  0.00000E+00
NE     0    16     1      8 -7.50000E+00  0.00000E+00  5.00000E-01  1.00000E+00  1.00000E+00  1.00000E+00
NH     0    16     1      8 -7.50000E+00  0.00000E+00  5.00000E-01  1.00000E+00  1.00000E+00  1.00000E+00
RP     0    19    37  1000  0.00000E+00  0.00000E+00  5.00000E+00  1.00000E+01  0.00000E+00  0.00000E+00
EN     0     0     0      0  0.00000E+00  0.00000E+00  0.00000E+00  0.00000E+00  0.00000E+00  0.00000E+00
