CM --- NEC2 Input File created by xnec2c-1.4 ---
CE --- End Comments ---
SM    10     5 -5.00000E-02 -5.00000E-02 -8.00000E-02 -5.00000E-02  2.00000E-01 -8.00000E-02  0.00000E+00
SC     0     0 -5.00000E-02  2.00000E-01  8.00000E-02  0.00000E+00  0.00000E+00  0.00000E+00  0.00000E+00
SM    10     5 -5.00000E-02 -5.00000E-02 -8.00000E-02  2.00000E-01 -5.00000E-02 -8.00000E-02  0.00000E+00
SC     0     0  2.00000E-01 -5.00000E-02  8.00000E-02  0.00000E+00  0.00000E+00  0.00000E+00  0.00000E+00
GW     1    15  0.00000E+00  0.00000E+00  2.50000E-02  0.00000E+00  0.00000E+00 -2.50000E-02  1.50000E-03
GE     0     0  0.00000E+00  0.00000E+00  0.00000E+00  0.00000E+00  0.00000E+00  0.00000E+00  0.00000E+00
EX     0     1     8      0  1.00000E+00  0.00000E+00  0.00000E+00  0.00000E+00  0.00000E+00  0.00000E+00
FR     0    21     0      0  2.30000E+03  1.50000E+01  2.60000E+03  0.00000E+00  0.00000E+00  0.00000E+00
RP     0    19    37      0  0.00000E+00  0.00000E+00  1.00000E+01  1.00000E+01  0.00000E+00  0.00000E+00
EN     0     0     0      0  0.00000E+00  0.00000E+00  0.00000E+00  0.00000E+00  0.00000E+00  0.00000E+00
