CM --- NEC2 Input File created or edited by xnec2c 3.5 ---
CM Gray-Hoverman - Patch Reflector
CE --- End Comments ---
GW     1    15  2.76500E-01  0.00000E+00  4.03500E-01  1.34500E-01  0.00000E+00  4.03500E-01  2.50000E-03
GW     2    20  1.34500E-01  0.00000E+00  4.03500E-01  0.00000E+00  0.00000E+00  2.69000E-01  2.50000E-03
GW     3    20  0.00000E+00  0.00000E+00  2.69000E-01  1.34500E-01  0.00000E+00  1.34500E-01  2.50000E-03
GW     4    20  1.34500E-01  0.00000E+00  1.34500E-01  0.00000E+00  0.00000E+00  0.00000E+00  2.50000E-03
GM     0     0  0.00000E+00  0.00000E+00  0.00000E+00  4.00000E-03  0.00000E+00  0.00000E+00  1.00000E+00
GM     8     1  0.00000E+00  0.00000E+00  1.80000E+02  0.00000E+00  0.00000E+00  0.00000E+00  0.00000E+00
GM     0     0  0.00000E+00  0.00000E+00  0.00000E+00  0.00000E+00  1.00000E-01  0.00000E+00  1.00000E+00
GX     4     1  0.00000E+00  0.00000E+00  0.00000E+00  0.00000E+00  0.00000E+00  0.00000E+00  0.00000E+00
GW    20     1  4.00000E-03  1.00000E-01  0.00000E+00 -4.00000E-03  1.00000E-01  0.00000E+00  2.50000E-03
SM    16    16  4.00000E-01  0.00000E+00  5.00000E-01  4.00000E-01  0.00000E+00 -5.00000E-01  0.00000E+00
SC     0     0 -4.00000E-01  0.00000E+00 -5.00000E-01  0.00000E+00  0.00000E+00  0.00000E+00  0.00000E+00
GE     0     0  0.00000E+00  0.00000E+00  0.00000E+00  0.00000E+00  0.00000E+00  0.00000E+00  0.00000E+00
EX     0    20     1      0  1.00000E+00  0.00000E+00  0.00000E+00  0.00000E+00  0.00000E+00  0.00000E+00
FR     0    26     0      0  3.00000E+02  2.00000E+01  8.00000E+02  0.00000E+00  0.00000E+00  0.00000E+00
RP     0    38    73      0  0.00000E+00  0.00000E+00  5.00000E+00  5.00000E+00  0.00000E+00  0.00000E+00
EN     0     0     0      0  0.00000E+00  0.00000E+00  0.00000E+00  0.00000E+00  0.00000E+00  0.00000E+00
