CM --- NEC2 Input File created by xnec2c 1.0-beta ---
CM K9AY directional small receiving loop 1.8-4.0 MHz.
CM By connecting two adjacent feed points in parallel,
CM the radiation pattern can be rotated 45 degrees so
CM that the antenna can cover eight directions.
CE --- End Comments ---
GW     1     8  0.00000E+00  0.00000E+00  8.50000E+00  5.00000E+00  0.00000E+00  1.50000E+00  1.50000E-03
GW     2     5  0.00000E+00  0.00000E+00  0.00000E+00  5.00000E+00  0.00000E+00  1.50000E+00  1.50000E-03
GX     2   100  0.00000E+00  0.00000E+00  0.00000E+00  0.00000E+00  0.00000E+00  0.00000E+00  0.00000E+00
GM     4     1  0.00000E+00  0.00000E+00  9.00000E+01  0.00000E+00  0.00000E+00  0.00000E+00  0.00000E+00
GE     1     0  0.00000E+00  0.00000E+00  0.00000E+00  0.00000E+00  0.00000E+00  0.00000E+00  0.00000E+00
EX     0     6     1      0  1.00000E+00  0.00000E+00  0.00000E+00  0.00000E+00  0.00000E+00  0.00000E+00
EX     0     4     1      0  1.00000E+00  0.00000E+00  0.00000E+00  0.00000E+00  0.00000E+00  0.00000E+00
LD     4     2     1      1  4.70000E+02  0.00000E+00  0.00000E+00  0.00000E+00  0.00000E+00  0.00000E+00
LD     4     8     1      1  4.70000E+02  0.00000E+00  0.00000E+00  0.00000E+00  0.00000E+00  0.00000E+00
GN     2     0     0      0  1.20000E+01  1.00000E-02  0.00000E+00  0.00000E+00  0.00000E+00  0.00000E+00
FR     0    23     0      0  1.80000E+00  1.00000E-01  4.00000E+00  0.00000E+00  0.00000E+00  0.00000E+00
RP     0    19    37      0  0.00000E+00  0.00000E+00  5.00000E+00  1.00000E+01  0.00000E+00  0.00000E+00
EN     0     0     0      0  0.00000E+00  0.00000E+00  0.00000E+00  0.00000E+00  0.00000E+00  0.00000E+00
