CM --- NEC2 Input File created or edited by xnec2c 3.5 ---
CM K9AY directional small receiving loop 1.8-4.0 MHz.
CM By connecting two adjacent feed points in parallel,
CM the radiation pattern can be rotated 45 degrees so
CM that the antenna can cover eight directions.
CE --- End Comments ---
GW     1     8  0.00000E+00  0.00000E+00  8.50000E+00  5.00000E+00  0.00000E+00  1.50000E+00  1.50000E-03
GW     2     8  0.00000E+00  0.00000E+00  8.50000E+00 -5.00000E+00  0.00000E+00  1.50000E+00  1.50000E-03
GW     3     5  0.00000E+00  0.00000E+00  0.00000E+00  5.00000E+00  0.00000E+00  1.50000E+00  1.50000E-03
GW     4     5  0.00000E+00  0.00000E+00  0.00000E+00 -5.00000E+00  0.00000E+00  1.50000E+00  1.50000E-03
GW     5     8  0.00000E+00  0.00000E+00  8.60000E+00  0.00000E+00  5.00000E+00  1.60000E+00  1.50000E-03
GW     6     8  0.00000E+00  0.00000E+00  8.60000E+00  0.00000E+00 -5.00000E+00  1.60000E+00  1.50000E-03
GW     7     5  0.00000E+00  0.00000E+00  0.00000E+00  0.00000E+00  5.00000E+00  1.60000E+00  1.50000E-03
GW     8     5  0.00000E+00  0.00000E+00  0.00000E+00  0.00000E+00 -5.00000E+00  1.60000E+00  1.50000E-03
GE     1     0  0.00000E+00  0.00000E+00  0.00000E+00  0.00000E+00  0.00000E+00  0.00000E+00  0.00000E+00
EX     0     4     1      0  1.00000E+00  0.00000E+00  0.00000E+00  0.00000E+00  0.00000E+00  0.00000E+00
EX     0     7     1      0  1.00000E+00  0.00000E+00  0.00000E+00  0.00000E+00  0.00000E+00  0.00000E+00
LD     4     3     1      1  5.60000E+02  0.00000E+00  0.00000E+00  0.00000E+00  0.00000E+00  0.00000E+00
LD     4     8     1      1  5.60000E+02  0.00000E+00  0.00000E+00  0.00000E+00  0.00000E+00  0.00000E+00
GN     2     0     0      0  1.20000E+01  1.00000E-02  0.00000E+00  0.00000E+00  0.00000E+00  0.00000E+00
FR     0    23     0      0  1.80000E+00  1.00000E-01  4.00000E+00  0.00000E+00  0.00000E+00  0.00000E+00
RP     0    19    37      0  0.00000E+00  0.00000E+00  5.00000E+00  1.00000E+01  0.00000E+00  0.00000E+00
EN     0     0     0      0  0.00000E+00  0.00000E+00  0.00000E+00  0.00000E+00  0.00000E+00  0.00000E+00
