CM --- NEC2 Input File created or edited by xnec2c 3.5 ---
CM K9AY directional small receiving loop 1.8-4.0 MHz
CE --- End Comments ---
GW     1     8  0.00000E+00  0.00000E+00  8.50000E+00  5.00000E+00  0.00000E+00  1.50000E+00  1.50000E-03
GW     2     5  0.00000E+00  0.00000E+00  0.00000E+00  5.00000E+00  0.00000E+00  1.50000E+00  1.50000E-03
GX     2   100  0.00000E+00  0.00000E+00  0.00000E+00  0.00000E+00  0.00000E+00  0.00000E+00  0.00000E+00
GE     1     0  0.00000E+00  0.00000E+00  0.00000E+00  0.00000E+00  0.00000E+00  0.00000E+00  0.00000E+00
EX     0     4     1      0  1.00000E+00  0.00000E+00  0.00000E+00  0.00000E+00  0.00000E+00  0.00000E+00
LD     4     2     1      1  4.70000E+02  0.00000E+00  0.00000E+00  0.00000E+00  0.00000E+00  0.00000E+00
GN     2     0     0      0  1.20000E+01  1.00000E-02  0.00000E+00  0.00000E+00  0.00000E+00  0.00000E+00
FR     0    13     0      0  1.80000E+00  5.00000E-01  8.00000E+00  0.00000E+00  0.00000E+00  0.00000E+00
RP     0    19    37      0  0.00000E+00  0.00000E+00  5.00000E+00  1.00000E+01  0.00000E+00  0.00000E+00
EN     0     0     0      0  0.00000E+00  0.00000E+00  0.00000E+00  0.00000E+00  0.00000E+00  0.00000E+00
