CM --- NEC2 Input File created by xnec2c 1.0-beta ---
CM 3 Element Quad for 14 MHz
CM NOTE: This input file uses the modified GS command available in xnec2c,
CM where scaling is specified for a range of tag numbers. It is NOT compatible
CM with the standard NEC2 or its translation to C, nec2c. BEWARE!
CE --- End Comments ---
GW     1    13  0.00000E+00  2.72000E+00 -2.72000E+00  0.00000E+00  2.72000E+00  2.72000E+00  2.00000E-03
GW     2    13 -4.00000E+00  2.72000E+00 -2.72000E+00 -4.00000E+00  2.72000E+00  2.72000E+00  2.00000E-03
GS     2     2  1.02000E+00  0.00000E+00  0.00000E+00  0.00000E+00  0.00000E+00  0.00000E+00  0.00000E+00
GW     3    13  3.00000E+00  2.72000E+00 -2.72000E+00  3.00000E+00  2.72000E+00  2.72000E+00  2.00000E-03
GS     3     3  9.80000E-01  0.00000E+00  0.00000E+00  0.00000E+00  0.00000E+00  0.00000E+00  0.00000E+00
GM     0     3  9.00000E+01  0.00000E+00  0.00000E+00  0.00000E+00  0.00000E+00  0.00000E+00  0.00000E+00
GE     0     0  0.00000E+00  0.00000E+00  0.00000E+00  0.00000E+00  0.00000E+00  0.00000E+00  0.00000E+00
EX     0     1    46      0  1.00000E+00  0.00000E+00  0.00000E+00  0.00000E+00  0.00000E+00  0.00000E+00
FR     0    19     0      0  1.36000E+01  5.00000E-02  1.45000E+01  0.00000E+00  0.00000E+00  0.00000E+00
RP     0    37    73   1000  0.00000E+00  0.00000E+00  5.00000E+00  5.00000E+00  0.00000E+00  0.00000E+00
EN     0     0     0      0  0.00000E+00  0.00000E+00  0.00000E+00  0.00000E+00  0.00000E+00  0.00000E+00
