CM --- NEC2 Input File created or edited by xnec2c 3.5 ---
CM  CYLINDER WITH ATTACHED WIRES
CE --- End Comments ---
SP     0     0  1.00000E-01  0.00000E+00  7.33300E-02  0.00000E+00  0.00000E+00  3.84000E-03  0.00000E+00
SP     0     0  1.00000E-01  0.00000E+00  0.00000E+00  0.00000E+00  0.00000E+00  3.84000E-03  0.00000E+00
SP     0     0  1.00000E-01  0.00000E+00 -7.33300E-02  0.00000E+00  0.00000E+00  3.84000E-03  0.00000E+00
GM     0     1  0.00000E+00  0.00000E+00  3.00000E+01  0.00000E+00  0.00000E+00  0.00000E+00  0.00000E+00
SP     0     0  6.89000E-02  0.00000E+00  1.10000E-01  9.00000E+01  0.00000E+00  4.48800E-03  0.00000E+00
SP     0     0  6.89000E-02  0.00000E+00 -1.10000E-01 -9.00000E+01  0.00000E+00  4.48800E-03  0.00000E+00
GR     0     6  0.00000E+00  0.00000E+00  0.00000E+00  0.00000E+00  0.00000E+00  0.00000E+00  0.00000E+00
SP     0     0  0.00000E+00  0.00000E+00  1.10000E-01  9.00000E+01  0.00000E+00  4.48900E-03  0.00000E+00
SP     0     0  0.00000E+00  0.00000E+00 -1.10000E-01  9.00000E+01  0.00000E+00  4.48900E-03  0.00000E+00
GW     1    11  0.00000E+00  0.00000E+00  1.10000E-01  0.00000E+00  0.00000E+00  2.60000E-01  2.00000E-03
GW     2    11  1.00000E-01  0.00000E+00  0.00000E+00  2.36000E-01  0.00000E+00  0.00000E+00  2.00000E-03
GE     0     0  0.00000E+00  0.00000E+00  0.00000E+00  0.00000E+00  0.00000E+00  0.00000E+00  0.00000E+00
FR     0    26     0      0  4.20000E+02  2.00000E+00  0.00000E+00  0.00000E+00  0.00000E+00  0.00000E+00
EX     0     2     1      0  1.00000E+00  0.00000E+00  0.00000E+00  0.00000E+00  0.00000E+00  0.00000E+00
EX     0     1     1      0  1.00000E+00  0.00000E+00  0.00000E+00  0.00000E+00  0.00000E+00  0.00000E+00
NH     0     0     0      0  0.00000E+00  0.00000E+00  0.00000E+00  0.00000E+00  0.00000E+00  0.00000E+00
NE     0     1    20     20  0.00000E+00 -9.50000E-01 -9.50000E-01  0.00000E+00  1.00000E-01  1.00000E-01
RP     0    19    37   1000  0.00000E+00  0.00000E+00  1.00000E+01  1.00000E+01  0.00000E+00  0.00000E+00
EN     0     0     0      0  0.00000E+00  0.00000E+00  0.00000E+00  0.00000E+00  0.00000E+00  0.00000E+00
