CM --- NEC2 Input File created or edited by xnec2c 3.5 ---
CM T antenna for the high end of the MW band
CE --- End Comments ---
GW     2     1  0.00000E+00  1.00000E+01  1.80000E+01  1.50000E+00  1.00000E+01  1.80000E+01  2.50000E-03
GX     0   100  0.00000E+00  0.00000E+00  0.00000E+00  0.00000E+00  0.00000E+00  0.00000E+00  0.00000E+00
GM     0     2  0.00000E+00  0.00000E+00  0.00000E+00  0.00000E+00 -1.00000E+01  0.00000E+00  2.00000E+00
GW     3     6 -1.50000E+00  0.00000E+00  1.80000E+01 -1.50000E+00  1.00000E+01  1.80000E+01  2.50000E-03
GM     0     1  0.00000E+00  0.00000E+00  0.00000E+00  0.00000E+00 -1.00000E+01  0.00000E+00  3.00000E+00
GM     0     2  0.00000E+00  0.00000E+00  0.00000E+00  1.50000E+00  0.00000E+00  0.00000E+00  3.00000E+00
GW     1    12  0.00000E+00  0.00000E+00  0.00000E+00  0.00000E+00  0.00000E+00  1.80000E+01  2.50000E-03
GE     1     0  0.00000E+00  0.00000E+00  0.00000E+00  0.00000E+00  0.00000E+00  0.00000E+00  0.00000E+00
EX     0     1     1      0  1.00000E+00  0.00000E+00  0.00000E+00  0.00000E+00  0.00000E+00  0.00000E+00
GN     0    16     0     0  1.20000E+01  1.00000E-02  2.00000E+01  5.00000E-03  0.00000E+00  0.00000E+00
FR     0    21     0      0  1.00000E+00  5.00000E-02  2.00000E+00  0.00000E+00  0.00000E+00  0.00000E+00
RP     0    19    37      0  0.00000E+00  0.00000E+00  5.00000E+00  1.00000E+01  0.00000E+00  0.00000E+00
EN     0     0     0      0  0.00000E+00  0.00000E+00  0.00000E+00  0.00000E+00  0.00000E+00  0.00000E+00
