CM Turnstile antenna RH polarization for 137 MHz
CE End Comments
GW     1    24  0.00000E+00  5.20000E-01  1.05450E-01  0.00000E+00 -5.20000E-01  1.05450E-01  6.00000E-03
GW     2    24 -5.20000E-01  0.00000E+00  1.05450E-01  5.20000E-01  0.00000E+00  1.05450E-01  6.00000E-03
GW     3    12 -5.15000E-01  1.00000E-02  4.21000E-01  0.00000E+00  1.00000E-02  4.21000E-01  6.00000E-03
GW     4    12  0.00000E+00 -1.00000E-02  4.21000E-01  5.15000E-01 -1.00000E-02  4.21000E-01  6.00000E-03
GW     5    11  0.00000E+00 -4.76000E-01  4.21000E-01  0.00000E+00 -1.00000E-02  4.21000E-01  6.00000E-03
GW     6    11  0.00000E+00  1.00000E-02  4.21000E-01  0.00000E+00  4.76000E-01  4.21000E-01  6.00000E-03
GW     7     1  0.00000E+00  1.00000E-02  4.21000E-01  0.00000E+00 -1.00000E-02  4.21000E-01  6.00000E-03
GE     0     0  0.00000E+00  0.00000E+00  0.00000E+00  0.00000E+00  0.00000E+00  0.00000E+00  0.00000E+00
EX     0     7     1      0  1.00000E+00  0.00000E+00  0.00000E+00  0.00000E+00  0.00000E+00  0.00000E+00
FR     0    11     0      0  1.37000E+02  1.00000E-01  0.00000E+00  0.00000E+00  0.00000E+00  0.00000E+00
NH     0     0     0      0  0.00000E+00  0.00000E+00  0.00000E+00  0.00000E+00  0.00000E+00  0.00000E+00
NE     0    16     1     16 -1.50000E+00  0.00000E+00 -9.00000E-01  2.00000E-01  0.00000E+00  2.00000E-01
RP     0    19    37   1000  0.00000E+00  0.00000E+00  1.00000E+01  1.00000E+01  0.00000E+00  0.00000E+00
EN     0     0     0      0  0.00000E+00  0.00000E+00  0.00000E+00  0.00000E+00  0.00000E+00  0.00000E+00
