CM R.H. cicular polarized turnstile for 137 MHz
CE End Comments
GW     1    24  0.00000E+00 -4.90000E-01  1.00000E-01  0.00000E+00  4.90000E-01  1.00000E-01  6.00000E-03
GW     2    24 -4.85000E-01  0.00000E+00  1.00000E-01  4.85000E-01  0.00000E+00  1.00000E-01  6.00000E-03
GW     3    12  0.00000E+00  1.00000E-02  5.00000E-01  3.30000E-01  1.00000E-02  1.63000E-01  6.00000E-03
GW     4    12  0.00000E+00 -1.00000E-02  5.00000E-01 -3.30000E-01 -1.00000E-02  1.63000E-01  6.00000E-03
GW     5    12  0.00000E+00 -3.57000E-01  1.57000E-01  0.00000E+00 -1.00000E-02  5.00000E-01  6.00000E-03
GW     6    12  0.00000E+00  1.00000E-02  5.00000E-01  0.00000E+00  3.57000E-01  1.57000E-01  6.00000E-03
GW     7     1  0.00000E+00  1.00000E-02  5.00000E-01  0.00000E+00 -1.00000E-02  5.00000E-01  1.25000E-02
GE     0     0  0.00000E+00  0.00000E+00  0.00000E+00  0.00000E+00  0.00000E+00  0.00000E+00  0.00000E+00
EX     0     7     1      0  1.00000E+00  0.00000E+00  0.00000E+00  0.00000E+00  0.00000E+00  0.00000E+00
FR     0    11     0      0  1.36000E+02  2.00000E-01  0.00000E+00  0.00000E+00  0.00000E+00  0.00000E+00
LD     5     0     0      0  3.70000E+07  0.00000E+00  0.00000E+00  0.00000E+00  0.00000E+00  0.00000E+00
NH     0     0     0      0  0.00000E+00  0.00000E+00  0.00000E+00  0.00000E+00  0.00000E+00  0.00000E+00
NE     0    16     1     16 -7.50000E-01  0.00000E+00 -4.50000E-01  1.00000E-01  0.00000E+00  1.00000E-01
RP     0    19    37   1000  0.00000E+00  0.00000E+00  1.00000E+01  1.00000E+01  0.00000E+00  0.00000E+00
EN     0     0     0      0  0.00000E+00  0.00000E+00  0.00000E+00  0.00000E+00  0.00000E+00  0.00000E+00
