CM --- NEC2 Input File created or edited by xnec2c 3.5 ---
CM Two identical small loops fed 180 degrees out of phase.
CM This cancels out the radiation from the driven elements
CM and so the radiation resistance increases approximately
CM ten-fold, because the radiation from the two vertical
CM elements opposing the driven ones is not mostly canceled
CM by radiation from the driven elements. Try specifying the
CM transmission line in the second TL card as non-crossed.
CE --- End Comments ---
GW     1    31   2.10000E+00  0.00000E+00 -1.00000E+00  2.10000E+00  0.00000E+00  1.00000E+00  1.00000E-02
GW     1    31   2.10000E+00  0.00000E+00  1.00000E+00  1.00000E-01  0.00000E+00  1.00000E+00  1.00000E-02
GW     1    31   2.10000E+00  0.00000E+00 -1.00000E+00  1.00000E-01  0.00000E+00 -1.00000E+00  1.00000E-02
GW     1    31   1.00000E-01  0.00000E+00 -1.00000E+00  1.00000E-01  0.00000E+00  1.00000E+00  1.00000E-02
GX     1   100   0.00000E+00  0.00000E+00  0.00000E+00  0.00000E+00  0.00000E+00  0.00000E+00  0.00000E+00
GW     3     1   0.00000E+00  0.00000E+00 -3.00000E-02  0.00000E+00  0.00000E+00  3.00000E-02  1.00000E-02
GE     0     0   0.00000E+00  0.00000E+00  0.00000E+00  0.00000E+00  0.00000E+00  0.00000E+00  0.00000E+00
EX     0     3     1      0  1.00000E+00  0.00000E+00  0.00000E+00  0.00000E+00  0.00000E+00  0.00000E+00
TL     1   109     3      1  3.00000E+02  0.00000E+00  0.00000E+00  0.00000E+00  0.00000E+00  0.00000E+00
TL     2   109     3      1 -3.00000E+02  0.00000E+00  0.00000E+00  0.00000E+00  0.00000E+00  0.00000E+00
FR     0    21     0      0  8.00000E+00  2.00000E-01  1.20000E+01  0.00000E+00  0.00000E+00  0.00000E+00
RP     0    19    37   1000  0.00000E+00  0.00000E+00  1.00000E+01  1.00000E+01  0.00000E+00  0.00000E+00
EN     0     0     0      0  0.00000E+00  0.00000E+00  0.00000E+00  0.00000E+00  0.00000E+00  0.00000E+00
