CM Cross-polarized omni-directional antenna for 144 MHz
CE --- End Comments ---
GW     1    20  0.00000E+00  0.00000E+00  2.00000E-02  6.92700E-01  2.51900E-01  2.61800E-01  3.00000E-03
GW     2    20  0.00000E+00  0.00000E+00 -2.00000E-02  6.92700E-01 -2.51900E-01 -2.61800E-01  3.00000E-03
GW     3    20  6.92700E-01  2.51900E-01  2.61800E-01  6.92700E-01 -2.51900E-01 -2.61800E-01  3.00000E-03
GR     3     4  0.00000E+00  0.00000E+00  0.00000E+00  0.00000E+00  0.00000E+00  0.00000E+00  0.00000E+00
GW    13     1  0.00000E+00  0.00000E+00 -2.00000E-02  0.00000E+00  0.00000E+00  2.00000E-02  1.00000E-02
GE     0     0  0.00000E+00  0.00000E+00  0.00000E+00  0.00000E+00  0.00000E+00  0.00000E+00  0.00000E+00
EX     0    13     1      0  1.00000E+00  0.00000E+00  0.00000E+00  0.00000E+00  0.00000E+00  0.00000E+00
FR     0    21     0      0  1.44000E+02  1.00000E-01  1.46000E+02  0.00000E+00  0.00000E+00  0.00000E+00
RP     0    19    37   1000  0.00000E+00  0.00000E+00  1.00000E+01  1.00000E+01  0.00000E+00  0.00000E+00
EN     0     0     0      0  0.00000E+00  0.00000E+00  0.00000E+00  0.00000E+00  0.00000E+00  0.00000E+00
